geometry optimzed in LAMMPS
_audit_creation_date              2020-12-01 
_audit_creation_method            'lammps2cif' 
_symmetry_space_group_name_H-M    'P1' 
_symmetry_Int_Tables_number       1 
_symmetry_cell_setting            triclinic 
loop_ 
_symmetry_equiv_pos_as_xyz 
  x,y,z 
_cell_length_a                    33.14267756 
_cell_length_b                    33.19615479856132 
_cell_length_c                    33.28387818581765 
_cell_angle_alpha                 89.72239811301534 
_cell_angle_beta                  90.21482880584024 
_cell_angle_gamma                 90.00484245115263 
loop_ 
_atom_site_label 
_atom_site_type_symbol 
_atom_site_fract_x 
_atom_site_fract_y 
_atom_site_fract_z 
_atom_site_charge 
C1          C  0.09526094  0.10401150  0.10484200     0.86500
C2          C  0.06989787  0.13032286  0.13387742    -0.53700
C3          C  0.09243514  0.15413124  0.15911833     0.09500
C4          C  0.13793625  0.14928934  0.15411334     0.20400
C5          C  0.12383977  0.13539783  0.08395422    -0.54400
C6          C  0.14556017  0.15881071  0.10993145     0.09600
C7          C  0.12448430  0.08029698  0.13303049    -0.54000
C8          C  0.14634018  0.10404467  0.15903716     0.10100
H9          H  0.03717842  0.13114436  0.13340492     0.14600
H10         H  0.15597176  0.16841159  0.17484100     0.00400
H11         H  0.12786936  0.13962377  0.05265539     0.14900
H12         H  0.12808783  0.04785103  0.13195448     0.14700
C13         C  0.82668075  0.11107156  0.83227688     0.86500
C14         C  0.79311231  0.13678711  0.85281543    -0.53700
C15         C  0.77014310  0.15908569  0.82648054     0.09500
C16         C  0.78204093  0.15422760  0.78253829     0.20400
C17         C  0.80256486  0.08624872  0.80058161    -0.54400
C18         C  0.77979514  0.10905665  0.77445716     0.09600
C19         C  0.85030772  0.14291353  0.80703035    -0.54000
C20         C  0.82667673  0.16523963  0.78120734     0.10100
H21         H  0.78754200  0.13815388  0.88473648     0.14600
H22         H  0.76317666  0.17254347  0.76162647     0.00400
H23         H  0.80341230  0.05363232  0.79902210     0.14900
H24         H  0.88254902  0.14782054  0.81000602     0.14700
C25         C  0.84519176  0.84391393  0.10734183     0.86500
C26         C  0.87251104  0.82058205  0.13743824    -0.53700
C27         C  0.85308104  0.79220549  0.16039101     0.09500
C28         C  0.80736489  0.79064851  0.15264656     0.20400
C29         C  0.82238842  0.81061550  0.08379634    -0.54400
C30         C  0.80268183  0.78312995  0.10760139     0.09600
C31         C  0.81142176  0.86185723  0.13499887    -0.54000
C32         C  0.79166061  0.83383628  0.15839357     0.10100
H33         H  0.90475163  0.82574964  0.13995651     0.14600
H34         H  0.79147812  0.76807944  0.17164224     0.00400
H35         H  0.82087902  0.80971532  0.05123411     0.14900
H36         H  0.80376181  0.89343897  0.13706137     0.14700
C37         C  0.10515265  0.85010777  0.85044546     0.86500
C38         C  0.13211793  0.87144527  0.81794240    -0.53700
C39         C  0.15609388  0.84584090  0.79620789     0.09500
C40         C  0.15121632  0.80153647  0.80813056     0.20400
C41         C  0.08196874  0.81807345  0.82556247    -0.54400
C42         C  0.10607575  0.79252851  0.80391415     0.09600
C43         C  0.13639600  0.82544634  0.87548966    -0.54000
C44         C  0.16025510  0.80030636  0.85309871     0.10100
H45         H  0.13428468  0.90355352  0.81308181     0.14600
H46         H  0.17061487  0.78097829  0.79032848     0.00400
H47         H  0.04927983  0.81647592  0.82436625     0.14900
H48         H  0.13979955  0.82825816  0.90779255     0.14700
C49         C  0.93455978  0.00673944  0.94015671     0.86500
C50         C  0.96315916  0.03126374  0.96745716    -0.53700
C51         C  0.98777988  0.00948513  0.99287872     0.09500
C52         C  0.98123360  0.96290749  0.98822266     0.20400
C53         C  0.96307773  0.97693899  0.91840691    -0.54400
C54         C  0.98871185  0.95486086  0.94226360     0.09600
C55         C  0.91136240  0.97931570  0.96968569    -0.54000
C56         C  0.93461102  0.95625516  0.99539993     0.10100
H57         H  0.96327241  0.06382235  0.96701149     0.14600
H58         H  0.00086019  0.94469176  0.00839572     0.00400
H59         H  0.96322128  0.97220977  0.88668640     0.14900
H60         H  0.87864500  0.97817751  0.96997471     0.14700
C61         C  0.70429006  0.70218257  0.60167496     0.80300
N62         N  0.74458146  0.69387586  0.59910216    -0.78000
C63         C  0.77173047  0.72461038  0.59647794     0.82700
N64         N  0.75847599  0.76282377  0.59589452    -0.78000
C65         C  0.71897970  0.77179873  0.59570952     0.82800
N66         N  0.69135641  0.74128746  0.59816879    -0.79700
C67         C  0.61139578  0.69676513  0.69418119     0.80300
N68         N  0.60852433  0.68738759  0.73413711    -0.78000
C69         C  0.60455495  0.71755269  0.76152435     0.82700
N70         N  0.60354462  0.75592445  0.74881506    -0.78000
C71         C  0.60546833  0.76579825  0.70981654     0.82800
N72         N  0.60891069  0.73604438  0.68201499    -0.79700
C73         C  0.35673507  0.68481768  0.25882227     0.80300
N74         N  0.35681830  0.72516059  0.26716537    -0.78000
C75         C  0.36250619  0.75230677  0.23693404     0.82700
N76         N  0.36822836  0.73909968  0.19946507    -0.78000
C77         C  0.36904915  0.69982246  0.19053694     0.82800
N78         N  0.36373235  0.67194864  0.22035073    -0.79700
C79         C  0.68439372  0.34872749  0.26202380     0.80300
N80         N  0.72387794  0.35360549  0.27379049    -0.78000
C81         C  0.75307324  0.35879732  0.24528606     0.82700
N82         N  0.74248011  0.35942021  0.20639202    -0.78000
C83         C  0.70411961  0.35555943  0.19427811     0.82800
N84         N  0.67451726  0.35043116  0.22209229    -0.79700
O85         O  0.45394191  0.75881363  0.02838962    -0.74400
O86         O  0.51760978  0.76426244  0.92970197    -0.74400
O87         O  0.43843911  0.77160752  0.94927403    -0.74500
O88         O  0.53299147  0.75878797  0.00905820    -0.74500
O89         O  0.53125862  0.69199774  0.00337827    -0.74500
O90         O  0.43097341  0.70528136  0.94206381    -0.74400
O91         O  0.51022311  0.69772156  0.92523999    -0.74400
O92         O  0.45144109  0.69215304  0.02049750    -0.74500
Ni93       Ni  0.48581647  0.76576554  0.97931026     1.25400
Ni94       Ni  0.48069157  0.69436968  0.97258216     1.25400
C95         C  0.44327892  0.72336308  0.04063421     0.87800
C96         C  0.52414642  0.73053944  0.91154338     0.87700
C97         C  0.41869336  0.74182095  0.93596140     0.87800
C98         C  0.54876271  0.72460830  0.01553690     0.87900
O99         O  0.69037154  0.42455391  0.94308600    -0.74400
O100        O  0.70557159  0.51914408  0.01045327    -0.74400
O101        O  0.69923664  0.50439997  0.93085757    -0.74500
O102        O  0.69056169  0.43996618  0.02305004    -0.74500
O103        O  0.75696268  0.42936721  0.02521247    -0.74500
O104        O  0.76571766  0.49402076  0.92762631    -0.74400
O105        O  0.77191345  0.50796818  0.00760772    -0.74400
O106        O  0.75691016  0.41561220  0.94541993    -0.74500
Ni107      Ni  0.69402657  0.47237513  0.97699167     1.25400
Ni108      Ni  0.76528710  0.46143651  0.97658607     1.25400
C109        C  0.72231013  0.40467121  0.93321179     0.87800
C110        C  0.74224756  0.52911335  0.01899850     0.87700
C111        C  0.73273304  0.50889692  0.91315417     0.87800
C112        C  0.72126963  0.42430217  0.03982092     0.87900
C113        C  0.77584377  0.75080012  0.09283342     0.80300
N114        N  0.79006911  0.71220203  0.09036089    -0.78000
C115        C  0.76366452  0.68162080  0.08334696     0.82700
N116        N  0.72437761  0.68965997  0.07846546    -0.78000
C117        C  0.70963187  0.72714262  0.08040852     0.82800
N118        N  0.73545165  0.75829804  0.08773560    -0.79700
C119        C  0.70558025  0.59975934  0.69343390     0.80300
N120        N  0.69180895  0.58837452  0.73052462    -0.78000
C121        C  0.71879159  0.58219724  0.76092440     0.82700
N122        N  0.75833424  0.58694160  0.75420328    -0.78000
C123        C  0.77261175  0.59726619  0.71799078     0.82800
N124        N  0.74620450  0.60345991  0.68703861    -0.79700
C125        C  0.27431774  0.69188059  0.36610253     0.80300
N126        N  0.28938720  0.72979816  0.37305517    -0.78000
C127        C  0.26357868  0.75986430  0.38399357     0.82700
N128        N  0.22415209  0.75201150  0.38764369    -0.78000
C129        C  0.20882883  0.71536447  0.38075254     0.82800
N130        N  0.23384431  0.68472570  0.37016931    -0.79700
O131        O  0.04100942  0.77324122  0.45503644    -0.74400
O132        O  0.93576591  0.78190271  0.50554644    -0.74400
O133        O  0.01239635  0.77640194  0.53098694    -0.74500
O134        O  0.96463047  0.78428898  0.42861546    -0.74500
O135        O  0.96362745  0.71735501  0.42293370    -0.74500
O136        O  0.00120455  0.71015602  0.53318134    -0.74400
O137        O  0.92902370  0.71560522  0.49695294    -0.74400
O138        O  0.03501811  0.70645055  0.45946880    -0.74500
Ni139      Ni  0.98860404  0.78147898  0.48000835     1.25400
Ni140      Ni  0.98188220  0.70994205  0.47801721     1.25400
C141        C  0.05524283  0.73746249  0.44984466     0.87800
C142        C  0.91568907  0.74892797  0.50995714     0.87700
C143        C  0.01316726  0.74306028  0.54983653     0.87800
C144        C  0.95863828  0.75285296  0.40782720     0.87900
O145        O  0.03172465  0.43693338  0.76592281    -0.74400
O146        O  0.93655689  0.50706568  0.76769238    -0.74400
O147        O  0.95080043  0.42651271  0.76755916    -0.74500
O148        O  0.01800480  0.51752298  0.77295253    -0.74500
O149        O  0.02019727  0.52290913  0.70643273    -0.74500
O150        O  0.94977493  0.42845679  0.70056420    -0.74400
O151        O  0.94009716  0.50925572  0.70091724    -0.74400
O152        O  0.02997231  0.44208041  0.69938082    -0.74500
Ni153      Ni  0.98427338  0.47195912  0.77100527     1.25400
Ni154      Ni  0.98510130  0.47583200  0.69950206     1.25400
C155        C  0.04620591  0.42809049  0.73103803     0.87800
C156        C  0.92247438  0.51863940  0.73320320     0.87700
C157        C  0.93939553  0.41198337  0.73422335     0.87800
C158        C  0.02999761  0.53597277  0.74172172     0.87900
C159        C  0.09079104  0.76197888  0.77503673     0.80300
N160        N  0.07122234  0.77460272  0.74095679    -0.78000
C161        C  0.05942362  0.74701848  0.71319851     0.82700
N162        N  0.06832352  0.70804620  0.71881483    -0.78000
C163        C  0.08818395  0.69473328  0.75139790     0.82800
N164        N  0.09925133  0.72172111  0.78037719    -0.79700
C165        C  0.26713357  0.36117434  0.68990781     0.80300
N166        N  0.27953512  0.37732385  0.72582231    -0.78000
C167        C  0.25140702  0.38545458  0.75456877     0.82700
N168        N  0.21249507  0.37759853  0.74744332    -0.78000
C169        C  0.19962225  0.36210746  0.71262668     0.82800
N170        N  0.22691142  0.35401766  0.68324607    -0.79700
C171        C  0.67276824  0.25671983  0.35987183     0.80300
N172        N  0.66896097  0.21745082  0.34786732    -0.78000
C173        C  0.69817664  0.19033539  0.35798438     0.82700
N174        N  0.72988084  0.20241400  0.37992631    -0.78000
C175        C  0.73392424  0.24059916  0.39204726     0.82800
N176        N  0.70564738  0.26839921  0.38169818    -0.79700
O177        O  0.70157232  0.01280668  0.50672519    -0.74400
O178        O  0.70234196  0.93657730  0.41758183    -0.74400
O179        O  0.70329539  0.93125950  0.49852412    -0.74500
O180        O  0.69389572  0.01690180  0.42577180    -0.74500
O181        O  0.76038794  0.02482883  0.42182770    -0.74500
O182        O  0.77050771  0.93290685  0.49563379    -0.74400
O183        O  0.76902147  0.94398294  0.41538585    -0.74400
O184        O  0.76854973  0.01489699  0.50252148    -0.74500
Ni185      Ni  0.69790377  0.97427681  0.46233716     1.25400
Ni186      Ni  0.76955485  0.97938710  0.45882705     1.25400
C187        C  0.73607635  0.02615898  0.51916630     0.87800
C188        C  0.73690904  0.92844254  0.40169136     0.87700
C189        C  0.73733313  0.91661678  0.50802992     0.87800
C190        C  0.72418088  0.03560281  0.41184873     0.87900
O191        O  0.51389434  0.99409395  0.67143839    -0.74400
O192        O  0.41518055  0.93126545  0.68445645    -0.74400
O193        O  0.43313618  0.01093542  0.66961532    -0.74500
O194        O  0.49445323  0.91640015  0.67971226    -0.74500
O195        O  0.50200448  0.92522658  0.74569479    -0.74500
O196        O  0.43300978  0.01977986  0.73597581    -0.74400
O197        O  0.42192270  0.93973580  0.75033119    -0.74400
O198        O  0.51314616  0.00497611  0.73742995    -0.74500
Ni199      Ni  0.46374831  0.96311276  0.67383491     1.25400
Ni200      Ni  0.46739320  0.97281773  0.74471050     1.25400
C201        C  0.53049616  0.00815160  0.70366411     0.87800
C202        C  0.40367498  0.92379895  0.72078152     0.87700
C203        C  0.42314410  0.03138270  0.70018988     0.87800
C204        C  0.50924652  0.90548163  0.71320208     0.87900
C205        C  0.75450116  0.09327080  0.74103861     0.80300
N206        N  0.71783147  0.07567312  0.74891923    -0.78000
C207        C  0.69304495  0.06558287  0.71767748     0.82700
N208        N  0.70445013  0.07408850  0.68008272    -0.78000
C209        C  0.73971496  0.09166402  0.67145640     0.82800
N210        N  0.76547148  0.10118821  0.70202346    -0.79700
C211        C  0.35912253  0.26072572  0.67930476     0.80300
N212        N  0.36103178  0.22190005  0.66536542    -0.78000
C213        C  0.36485676  0.19073747  0.69206679     0.82700
N214        N  0.36679524  0.19858192  0.73148970    -0.78000
C215        C  0.36507185  0.23606950  0.74604833     0.82800
N216        N  0.36105183  0.26766775  0.71990273    -0.79700
O217        O  0.18633114  0.50882458  0.02900698    -0.74400
O218        O  0.18987238  0.45762101  0.92338887    -0.74400
O219        O  0.17910516  0.43186157  0.00086192    -0.74500
O220        O  0.19036587  0.53302033  0.95198839    -0.74500
O221        O  0.25735379  0.52932263  0.95413485    -0.74500
O222        O  0.24563659  0.42599216  0.00910534    -0.74400
O223        O  0.25634817  0.45095741  0.93172675    -0.74400
O224        O  0.25332130  0.50370946  0.03104889    -0.74500
Ni225      Ni  0.18396050  0.48278038  0.97619452     1.25400
Ni226      Ni  0.25554899  0.47717458  0.98162742     1.25400
C227        C  0.22051992  0.51532828  0.04672423     0.87800
C228        C  0.22491234  0.44694166  0.91026770     0.87700
C229        C  0.20944382  0.41243536  0.01401679     0.87800
C230        C  0.22461970  0.54840014  0.94487645     0.87900
C231        C  0.19360430  0.77478215  0.86851548     0.80300
N232        N  0.23231120  0.78955470  0.86919860    -0.78000
C233        C  0.26365167  0.76358758  0.87537002     0.82700
N234        N  0.25615805  0.72441204  0.88103604    -0.78000
C235        C  0.21882814  0.70916530  0.88048343     0.82800
N236        N  0.18699774  0.73439072  0.87400397    -0.79700
O237        O  0.02297104  0.50608693  0.20819210    -0.74400
O238        O  0.92537122  0.44008702  0.20546944    -0.74400
O239        O  0.94239877  0.51988279  0.20567636    -0.74500
O240        O  0.00608545  0.42672578  0.20157963    -0.74500
O241        O  0.00703227  0.42047396  0.26809441    -0.74500
O242        O  0.94279593  0.51986113  0.27242202    -0.74400
O243        O  0.92690899  0.43943960  0.27239308    -0.74400
O244        O  0.02235248  0.50009077  0.27493028    -0.74500
Ni245      Ni  0.97417289  0.47326719  0.20288386     1.25400
Ni246      Ni  0.97470913  0.46979131  0.27439591     1.25400
C247        C  0.03875472  0.51301239  0.24302696     0.87800
C248        C  0.90992966  0.42973647  0.23959013     0.87700
C249        C  0.93245283  0.53632196  0.23853996     0.87800
C250        C  0.01733058  0.40776510  0.23288054     0.87900
C251        C  0.87422141  0.76549552  0.19006689     0.80300
N252        N  0.89892739  0.78227135  0.21846939    -0.78000
C253        C  0.91880043  0.75811428  0.24515928     0.82700
N254        N  0.91274402  0.71822523  0.24427785    -0.78000
C255        C  0.88760197  0.70082552  0.21794188     0.82800
N256        N  0.86806023  0.72445974  0.19017154    -0.79700
C257        C  0.25774821  0.59518512  0.26976519     0.80300
N258        N  0.26579937  0.59069553  0.22957124    -0.78000
C259        C  0.23462358  0.58722671  0.20274600     0.82700
N260        N  0.19659028  0.58849389  0.21627354    -0.78000
C261        C  0.18791793  0.59204949  0.25538683     0.82800
N262        N  0.21857766  0.59487131  0.28266613    -0.79700
O263        O  0.49071726  0.19097488  0.02578964    -0.74400
O264        O  0.43009734  0.18923524  0.92466828    -0.74400
O265        O  0.50872285  0.18418559  0.94658399    -0.74500
O266        O  0.41229582  0.18896691  0.00395651    -0.74500
O267        O  0.41274471  0.25612185  0.00454716    -0.74500
O268        O  0.51143103  0.25099042  0.94085566    -0.74400
O269        O  0.43167645  0.25628844  0.92556002    -0.74400
O270        O  0.49268669  0.25787445  0.02013949    -0.74500
Ni271      Ni  0.46044128  0.18590504  0.97538484     1.25400
Ni272      Ni  0.46228809  0.25773230  0.97273065     1.25400
C273        C  0.50089466  0.22591678  0.03948070     0.87800
C274        C  0.42145892  0.22374668  0.90854781     0.87700
C275        C  0.52588711  0.21561876  0.93341471     0.87800
C276        C  0.39625811  0.22208555  0.01389508     0.87900
C277        C  0.73832441  0.18803315  0.83795822     0.80300
N278        N  0.74789331  0.22781722  0.84233217    -0.78000
C279        C  0.71811919  0.25558465  0.84752053     0.82700
N280        N  0.67953286  0.24320593  0.84803983    -0.78000
C281        C  0.66933418  0.20420787  0.84453765     0.82800
N282        N  0.69891059  0.17603456  0.84007527    -0.79700
O283        O  0.41776525  0.00177204  0.25143301    -0.74400
O284        O  0.51988516  0.94216109  0.25391796    -0.74400
O285        O  0.49692724  0.02044623  0.25923643    -0.74500
O286        O  0.44036028  0.92382638  0.25323714    -0.74500
O287        O  0.44169864  0.92358337  0.18631426    -0.74500
O288        O  0.50071279  0.02563177  0.19266718    -0.74400
O289        O  0.52089730  0.94664485  0.18713054    -0.74400
O290        O  0.42246023  0.00287931  0.18458423    -0.74500
Ni291      Ni  0.46868335  0.97200243  0.25681071     1.25400
Ni292      Ni  0.47158559  0.97478668  0.18521446     1.25400
C293        C  0.40347135  0.01125478  0.21644665     0.87800
C294        C  0.53709236  0.93502836  0.21982492     0.87700
C295        C  0.50771444  0.03967995  0.22821703     0.87800
C296        C  0.43161380  0.90719983  0.22017211     0.87900
C297        C  0.75959422  0.84312088  0.18864562     0.80300
N298        N  0.76890678  0.83902798  0.22850079    -0.78000
C299        C  0.73967549  0.84281060  0.25687921     0.82700
N300        N  0.70177925  0.85109218  0.24520297    -0.78000
C301        C  0.69147273  0.85650591  0.20648203     0.82800
N302        N  0.72067929  0.85298270  0.17749504    -0.79700
C303        C  0.57923784  0.26334619  0.26144265     0.80300
N304        N  0.57342877  0.27509522  0.22231823    -0.78000
C305        C  0.56845477  0.24650510  0.19347712     0.82700
N306        N  0.56926076  0.20741268  0.20381101    -0.78000
C307        C  0.57491562  0.19515517  0.24176044     0.82800
N308        N  0.57973442  0.22316395  0.27114931    -0.79700
O309        O  0.26528622  0.01357012  0.42700771    -0.74400
O310        O  0.26908465  0.96099670  0.53298110    -0.74400
O311        O  0.27517093  0.93646903  0.45488539    -0.74500
O312        O  0.26656821  0.03686658  0.50485219    -0.74500
O313        O  0.19973185  0.03253834  0.50789198    -0.74500
O314        O  0.20830621  0.92994219  0.45096728    -0.74400
O315        O  0.20238571  0.95375517  0.52848010    -0.74400
O316        O  0.19841216  0.00835345  0.43002623    -0.74500
Ni317      Ni  0.27149206  0.98704680  0.47979976     1.25400
Ni318      Ni  0.19983054  0.98094788  0.47922782     1.25400
C319        C  0.22985858  0.01975868  0.41161204     0.87800
C320        C  0.23497863  0.94956623  0.54807266     0.87700
C321        C  0.24428161  0.91643746  0.44451634     0.87800
C322        C  0.23303744  0.05139204  0.51563978     0.87900
C323        C  0.18799612  0.85874039  0.76734166     0.80300
N324        N  0.22723796  0.84790103  0.77505120    -0.78000
C325        C  0.25639144  0.85634305  0.74756594     0.82700
N326        N  0.24646517  0.87606143  0.71382746    -0.78000
C327        C  0.20876992  0.88787725  0.70573795     0.82800
N328        N  0.17861349  0.87909492  0.73238622    -0.79700
O329        O  0.02196228  0.20958176  0.49934374    -0.74400
O330        O  0.91238770  0.20156974  0.45853285    -0.74400
O331        O  0.98727546  0.19859839  0.42654113    -0.74500
O332        O  0.94744592  0.20698478  0.53094472    -0.74500
O333        O  0.94240477  0.27377199  0.52571261    -0.74500
O334        O  0.98521444  0.26523576  0.41734910    -0.74400
O335        O  0.91205793  0.26843022  0.45112993    -0.74400
O336        O  0.01762740  0.27632233  0.49184687    -0.74500
Ni337      Ni  0.96751843  0.20182613  0.47898691     1.25400
Ni338      Ni  0.96451072  0.27344834  0.47135897     1.25400
C339        C  0.03723399  0.24511475  0.50248936     0.87800
C340        C  0.89440374  0.23462005  0.44857685     0.87700
C341        C  0.99212574  0.22937638  0.40434595     0.87800
C342        C  0.93677222  0.24059135  0.54534982     0.87900
C343        C  0.84026008  0.19903068  0.75516956     0.80300
N344        N  0.84196459  0.19370300  0.71451275    -0.78000
C345        C  0.84658906  0.22611138  0.68962840     0.82700
N346        N  0.84941520  0.26308274  0.70556376    -0.78000
C347        C  0.84934637  0.26903292  0.74545919     0.82800
N348        N  0.84542134  0.23678497  0.77077706    -0.79700
C349        C  0.25901291  0.27416642  0.58876075     0.80300
N350        N  0.26446220  0.23342297  0.59239397    -0.78000
C351        C  0.23299097  0.20769312  0.58607857     0.82700
N352        N  0.19679408  0.22293010  0.57615739    -0.78000
C353        C  0.19073812  0.26275393  0.57202882     0.82800
N354        N  0.22191654  0.28892931  0.57798528    -0.79700
C355        C  0.07603821  0.18417598  0.18745250     0.80300
N356        N  0.05605045  0.17158665  0.22117358    -0.78000
C357        C  0.04519961  0.19932994  0.24906882     0.82700
N358        N  0.05492114  0.23805935  0.24380337    -0.78000
C359        C  0.07471759  0.25119856  0.21140023     0.82800
N360        N  0.08534434  0.22426458  0.18246717    -0.79700
C361        C  0.17833059  0.08933230  0.18713034     0.80300
N362        N  0.17208241  0.08940704  0.22799093    -0.78000
C363        C  0.20371130  0.08185909  0.25350468     0.82700
N364        N  0.24022201  0.07449420  0.23820155    -0.78000
C365        C  0.24689653  0.07379478  0.19861563     0.82800
N366        N  0.21597243  0.08095194  0.17246436    -0.79700
C367        C  0.17427324  0.19055954  0.09703574     0.80300
N368        N  0.21421954  0.18117210  0.09268375    -0.78000
C369        C  0.24128111  0.21100979  0.08482188     0.82700
N370        N  0.22837794  0.24902460  0.08088444    -0.78000
C371        C  0.18938878  0.25899761  0.08424540     0.82800
N372        N  0.16159415  0.22968070  0.09216139    -0.79700
C373        C  0.34685416  0.35122507  0.60424739     0.86500
C374        C  0.37007047  0.31856927  0.62916218    -0.53700
C375        C  0.34570800  0.29377972  0.65189108     0.09500
C376        C  0.30082200  0.30352920  0.64812465     0.20400
C377        C  0.31483927  0.32667038  0.58013430    -0.54400
C378        C  0.29122171  0.30169061  0.60332009     0.09600
C379        C  0.32087577  0.37297882  0.63699224    -0.54000
C380        C  0.29690402  0.34784152  0.65937127     0.10100
H381        H  0.40267876  0.31581812  0.62928250     0.14600
H382        H  0.28136856  0.28341481  0.66658350     0.00400
H383        H  0.31139062  0.32876925  0.54776462     0.14900
H384        H  0.31994570  0.40492397  0.64225841     0.14700
C385        C  0.59880567  0.34542197  0.34232436     0.86500
C386        C  0.62376407  0.31443834  0.36698291    -0.53700
C387        C  0.64487253  0.28753874  0.34409138     0.09500
C388        C  0.64039965  0.29409815  0.29897813     0.20400
C389        C  0.63109052  0.36491525  0.31379977    -0.54400
C390        C  0.65277473  0.33782293  0.29173709     0.09600
C391        C  0.57298930  0.31938932  0.31313230    -0.54000
C392        C  0.59511484  0.29257386  0.29088454     0.10100
H393        H  0.62511149  0.31424890  0.39957111     0.14600
H394        H  0.65802814  0.27236510  0.28072840     0.00400
H395        H  0.63653810  0.39668220  0.30976996     0.14900
H396        H  0.54045210  0.32186257  0.31045152     0.14700
C397        C  0.62372403  0.61617297  0.61072186     0.86500
C398        C  0.60033433  0.64349443  0.64054953    -0.53700
C399        C  0.62471727  0.66602341  0.66521180     0.09500
C400        C  0.66965818  0.66006738  0.65810371     0.20400
C401        C  0.65216529  0.64689934  0.58852054    -0.54400
C402        C  0.67575964  0.66969833  0.61376207     0.09600
C403        C  0.65320133  0.59173124  0.63800369    -0.54000
C404        C  0.67681317  0.61491461  0.66271157     0.10100
H405        H  0.56766910  0.64552589  0.64133463     0.14600
H406        H  0.68892771  0.67859573  0.67829092     0.00400
H407        H  0.65375988  0.65128625  0.55637936     0.14900
H408        H  0.65503157  0.55910674  0.63792149     0.14700
C409        C  0.34882397  0.60429396  0.34418787     0.86500
C410        C  0.36990914  0.63095100  0.31131339    -0.53700
C411        C  0.34432315  0.65595404  0.29056449     0.09500
C412        C  0.30033984  0.65225113  0.30324136     0.20400
C413        C  0.32538217  0.63523904  0.36994857    -0.54400
C414        C  0.30023139  0.66010489  0.34850534     0.09600
C415        C  0.31551007  0.58214022  0.31946878    -0.54000
C416        C  0.29038604  0.60752938  0.29803751     0.10100
H417        H  0.40135895  0.63027878  0.30362748     0.14600
H418        H  0.27982898  0.67257656  0.28607147     0.00400
H419        H  0.32861257  0.63734333  0.40233318     0.14900
H420        H  0.31283107  0.54961528  0.31814158     0.14700
C421        C  0.51292195  0.51021688  0.50788491     0.86500
C422        C  0.48464145  0.53412485  0.47920485    -0.53700
C423        C  0.46022727  0.51145689  0.45440261     0.09500
C424        C  0.46623739  0.46498046  0.46142892     0.20400
C425        C  0.48351851  0.48174529  0.53070387    -0.54400
C426        C  0.45872049  0.45809889  0.50754671     0.09600
C427        C  0.53596985  0.48148575  0.47971028    -0.54000
C428        C  0.51268188  0.45792544  0.45473614     0.10100
H429        H  0.48391385  0.56679038  0.47875701     0.14600
H430        H  0.44673627  0.44618613  0.44185017     0.00400
H431        H  0.48129787  0.48005130  0.56293537     0.14900
H432        H  0.56863054  0.47983588  0.47996606     0.14700
C433        C  0.41951023  0.58188439  0.37014844    -0.12200
C434        C  0.37726225  0.57662262  0.37080891     0.04800
C435        C  0.36270566  0.54744247  0.39893648    -0.07500
C436        C  0.38971793  0.52504829  0.42421399    -0.08300
C437        C  0.43185979  0.53140749  0.42359257    -0.02800
C438        C  0.44604081  0.56017031  0.39546342     0.04000
N439        N  0.48799124  0.56788910  0.39084222     0.66500
H440        H  0.43317199  0.60380903  0.35128144     0.15400
H441        H  0.37741076  0.50382121  0.44562754     0.15100
N442        N  0.32036271  0.54085550  0.40333659     0.74200
O443        O  0.50542805  0.55189906  0.36137930    -0.39200
O444        O  0.50153995  0.60082986  0.40384684    -0.39200
O445        O  0.30488329  0.50877648  0.39017327    -0.39900
O446        O  0.30063224  0.56224542  0.42756987    -0.39900
C447        C  0.59432807  0.59095868  0.54186355    -0.12200
C448        C  0.59522573  0.58862263  0.58422897     0.04800
C449        C  0.56869974  0.55971958  0.60154110    -0.07500
C450        C  0.54313725  0.53514626  0.57738937    -0.08300
C451        C  0.54182059  0.53772526  0.53471706    -0.02800
C452        C  0.56868993  0.56666032  0.51770268     0.04000
N453        N  0.57028716  0.57320626  0.47543126     0.66500
H454        H  0.61339956  0.61196298  0.52623131     0.15400
H455        H  0.52472626  0.51394050  0.59331444     0.15100
N456        N  0.56710590  0.55451287  0.64416885     0.74200
O457        O  0.55555187  0.60554083  0.46187233    -0.39200
O458        O  0.59850154  0.55690025  0.45617073    -0.39200
O459        O  0.53934628  0.57143549  0.66368023    -0.39900
O460        O  0.58646121  0.52594899  0.66032176    -0.39900
C461        C  0.52115960  0.38872217  0.42123376    -0.12200
C462        C  0.53190634  0.42980447  0.42370662     0.04800
C463        C  0.56361240  0.44272471  0.39812840    -0.07500
C464        C  0.58320164  0.41593825  0.37194876    -0.08300
C465        C  0.57375416  0.37465406  0.36987845    -0.02800
C466        C  0.54197997  0.36131332  0.39560654     0.04000
N467        N  0.53115068  0.31966861  0.39721119     0.66500
H468        H  0.49762117  0.37729344  0.44064525     0.15400
H469        H  0.60720709  0.42855997  0.35458661     0.15100
N470        N  0.57791070  0.48318223  0.39830764     0.74200
O471        O  0.54826962  0.29682138  0.42243598    -0.39200
O472        O  0.49907301  0.30807218  0.38033126    -0.39200
O473        O  0.61107161  0.48986487  0.41572481    -0.39900
O474        O  0.56818195  0.50556117  0.36917068    -0.39900
C475        C  0.37550569  0.42155238  0.58080217    -0.12200
C476        C  0.37479172  0.37900355  0.57679849     0.04800
C477        C  0.40045627  0.36322496  0.54619194    -0.07500
C478        C  0.42576504  0.38889059  0.52242700    -0.08300
C479        C  0.42680067  0.43106687  0.52770546    -0.02800
C480        C  0.40043775  0.44689830  0.55708580     0.04000
N481        N  0.39802402  0.48946028  0.56308415     0.66500
H482        H  0.35668794  0.43645541  0.60203444     0.15400
H483        H  0.44574156  0.37544842  0.50063915     0.15100
N484        N  0.40190261  0.32083762  0.53908932     0.74200
O485        O  0.37963317  0.51116275  0.53774236    -0.39200
O486        O  0.40888989  0.50439944  0.59619735    -0.39200
O487        O  0.38205548  0.30625004  0.51019395    -0.39900
O488        O  0.42945347  0.30005644  0.55525625    -0.39900
C489        C  0.08075367  0.25281210  0.56202932    -0.12200
C490        C  0.07724919  0.25189344  0.52015686     0.04800
C491        C  0.10976169  0.26524253  0.49638056    -0.07500
C492        C  0.14635199  0.27606064  0.51473839    -0.08300
C493        C  0.15084946  0.27410580  0.55665058    -0.02800
C494        C  0.11707499  0.26410251  0.58034511     0.04000
N495        N  0.12028750  0.26266830  0.62315586     0.66500
H496        H  0.05513504  0.24484005  0.58059379     0.15400
H497        H  0.17238322  0.28215209  0.49604081     0.15100
N498        N  0.10674027  0.26561640  0.45351562     0.74200
O499        O  0.11509107  0.29440593  0.64316790    -0.39200
O500        O  0.12168546  0.22911822  0.64106921    -0.39200
O501        O  0.10594934  0.29872881  0.43475837    -0.39900
O502        O  0.11053039  0.23318427  0.43427237    -0.39900
C503        C  0.98901235  0.21321229  0.29262344    -0.12200
C504        C  0.02454712  0.19082769  0.28671435     0.04800
C505        C  0.04826622  0.18030948  0.32022933    -0.07500
C506        C  0.03812673  0.19498967  0.35816011    -0.08300
C507        C  0.00502264  0.22088810  0.36323288    -0.02800
C508        C  0.97973530  0.22923772  0.33026972     0.04000
N509        N  0.94495838  0.25431666  0.33436910     0.66500
H510        H  0.97114681  0.22259725  0.26685959     0.15400
H511        H  0.05666458  0.18669347  0.38379921     0.15100
N512        N  0.08491523  0.15820183  0.31553077     0.74200
O513        O  0.94903945  0.29211328  0.33366410    -0.39200
O514        O  0.91026332  0.23921622  0.33025167    -0.39200
O515        O  0.11785760  0.17685759  0.31165182    -0.39900
O516        O  0.08532113  0.12092324  0.32301840    -0.39900
C517        C  0.87921298  0.26086153  0.58791461    -0.12200
C518        C  0.91459928  0.23842211  0.58358648     0.04800
C519        C  0.92295739  0.20703631  0.61140740    -0.07500
C520        C  0.89639676  0.19907705  0.64296056    -0.08300
C521        C  0.86187144  0.22260445  0.64833729    -0.02800
C522        C  0.85273335  0.25301606  0.61972899     0.04000
N523        N  0.81691006  0.27671213  0.62318432     0.66500
H524        H  0.87126489  0.28350437  0.56568589     0.15400
H525        H  0.90487747  0.17686094  0.66543665     0.15100
N526        N  0.95945845  0.18418537  0.60910520     0.74200
O527        O  0.81958476  0.31450536  0.62609715    -0.39200
O528        O  0.78311912  0.26092184  0.61557199    -0.39200
O529        O  0.99190595  0.19896611  0.62242738    -0.39900
O530        O  0.95804208  0.14731930  0.60013160    -0.39900
C531        C  0.20351820  0.10097838  0.56363814    -0.12200
C532        C  0.23487687  0.09005632  0.53790828     0.04800
C533        C  0.26960598  0.11532023  0.53581306    -0.07500
C534        C  0.27094070  0.15151715  0.55696953    -0.08300
C535        C  0.23819957  0.16394724  0.57993786    -0.02800
C536        C  0.20512270  0.13727420  0.58499396     0.04000
N537        N  0.17222351  0.14739384  0.61071266     0.66500
H538        H  0.17763503  0.08135421  0.56720195     0.15400
H539        H  0.29621084  0.17170080  0.55217390     0.15100
N540        N  0.30266064  0.10655831  0.50979348     0.74200
O541        O  0.13718529  0.15113498  0.59618589    -0.39200
O542        O  0.17677530  0.14501942  0.64830735    -0.39200
O543        O  0.30492149  0.12428819  0.47627504    -0.39900
O544        O  0.33350990  0.08916565  0.52387964    -0.39900
C545        C  0.18797045  0.02676091  0.34993728    -0.12200
C546        C  0.22231960  0.03927612  0.37192102     0.04800
C547        C  0.24444926  0.07240417  0.35749145    -0.07500
C548        C  0.23331031  0.09068485  0.32091670    -0.08300
C549        C  0.20093525  0.07592938  0.29745694    -0.02800
C550        C  0.17727455  0.04461129  0.31316634     0.04000
N551        N  0.14496514  0.02772668  0.29024903     0.66500
H552        H  0.16986686  0.00177822  0.36071265     0.15400
H553        H  0.25232061  0.11444646  0.30897847     0.15100
N554        N  0.27818907  0.08786143  0.37932022     0.74200
O555        O  0.15158269  0.99806876  0.26764319    -0.39200
O556        O  0.10910588  0.03803408  0.29752179    -0.39200
O557        O  0.31233824  0.07159661  0.37529211    -0.39900
O558        O  0.27580480  0.12227300  0.39504836    -0.39900
C559        C  0.20152793  0.90199142  0.59499983    -0.12200
C560        C  0.23005789  0.93302943  0.58917102     0.04800
C561        C  0.24492129  0.95347387  0.62299836    -0.07500
C562        C  0.23189763  0.94221908  0.66153008    -0.08300
C563        C  0.20458673  0.91010201  0.66749298    -0.02800
C564        C  0.18895162  0.89042700  0.63360098     0.04000
N565        N  0.16171472  0.85741396  0.63810044     0.66500
H566        H  0.18858545  0.88679807  0.56923134     0.15400
H567        H  0.24559264  0.95670538  0.68733938     0.15100
N568        N  0.27288135  0.98595601  0.61874196     0.74200
O569        O  0.12488912  0.86419018  0.64468871    -0.39200
O570        O  0.17344737  0.82194330  0.63128402    -0.39200
O571        O  0.26023115  0.02180375  0.61860334    -0.39900
O572        O  0.31023371  0.97918165  0.62178409    -0.39900
C573        C  0.56199858  0.08863676  0.21218497    -0.12200
C574        C  0.52864688  0.07826147  0.23550312     0.04800
C575        C  0.51781613  0.10343136  0.26828715    -0.07500
C576        C  0.53779232  0.14010549  0.27418015    -0.08300
C577        C  0.56918190  0.15177338  0.24890551    -0.02800
C578        C  0.58311015  0.12438441  0.21952371     0.04000
N579        N  0.61769561  0.13368229  0.19562141     0.66500
H580        H  0.57210250  0.06864079  0.18862152     0.15400
H581        H  0.52646732  0.16093780  0.29644656     0.15100
N582        N  0.48491296  0.09367942  0.29435415     0.74200
O583        O  0.65205570  0.13509355  0.21201801    -0.39200
O584        O  0.61498423  0.13379789  0.15778782    -0.39200
O585        O  0.49077618  0.06966405  0.32330320    -0.39900
O586        O  0.45463116  0.11666946  0.29525433    -0.39900
C587        C  0.33319975  0.00470130  0.19379932    -0.12200
C588        C  0.36338997  0.02937822  0.21021410     0.04800
C589        C  0.35668717  0.07122276  0.21228994    -0.07500
C590        C  0.31896149  0.08692593  0.20104126    -0.08300
C591        C  0.28773171  0.06172809  0.18746061    -0.02800
C592        C  0.29557443  0.02042384  0.18263376     0.04000
N593        N  0.26411213  0.99347147  0.17082911     0.66500
H594        H  0.33869974  0.97276709  0.19042289     0.15400
H595        H  0.31286163  0.11860040  0.20602673     0.15100
N596        N  0.38724868  0.09802331  0.22660449     0.74200
O597        O  0.26062270  0.98334369  0.13450026    -0.39200
O598        O  0.24270789  0.97644162  0.19719265    -0.39200
O599        O  0.41924832  0.10266404  0.20667712    -0.39900
O600        O  0.37898858  0.12257692  0.25422170    -0.39900
C601        C  0.60443093  0.92776004  0.18733967    -0.12200
C602        C  0.57629123  0.91350868  0.21585605     0.04800
C603        C  0.58383127  0.87634914  0.23477101    -0.07500
C604        C  0.61947890  0.85517550  0.22620897    -0.08300
C605        C  0.64924996  0.87089214  0.20009676    -0.02800
C606        C  0.64068364  0.90709131  0.17960643     0.04000
N607        N  0.66942067  0.92455210  0.15281753     0.66500
H608        H  0.59854936  0.95571344  0.17140060     0.15400
H609        H  0.62531369  0.82736643  0.24239049     0.15100
N610        N  0.55567032  0.85967531  0.26269473     0.74200
O611        O  0.67062689  0.91302357  0.11677574    -0.39200
O612        O  0.68850174  0.95576004  0.16309991    -0.39200
O613        O  0.53508595  0.82920849  0.25308161    -0.39900
O614        O  0.55603429  0.87130126  0.29873388    -0.39900
C615        C  0.50464275  0.26252413  0.10364403    -0.12200
C616        C  0.52067809  0.23220498  0.07873355     0.04800
C617        C  0.55845958  0.21547896  0.08853205    -0.07500
C618        C  0.57822364  0.22804335  0.12356771    -0.08300
C619        C  0.55974709  0.25448779  0.15085153    -0.02800
C620        C  0.52367440  0.27355584  0.13960181     0.04000
N621        N  0.50492705  0.30226740  0.16539964     0.66500
H622        H  0.47681714  0.27751871  0.09523802     0.15400
H623        H  0.60610585  0.21317176  0.13213190     0.15100
N624        N  0.57693096  0.18530469  0.06410626     0.74200
O625        O  0.51871111  0.33765242  0.16724572    -0.39200
O626        O  0.47173701  0.29403658  0.18197771    -0.39200
O627        O  0.61451722  0.18647422  0.05824084    -0.39900
O628        O  0.55795400  0.15330527  0.05631917    -0.39900
C629        C  0.33122559  0.18732199  0.02285517    -0.12200
C630        C  0.35754975  0.21832532  0.03515928     0.04800
C631        C  0.34800575  0.24081109  0.06939682    -0.07500
C632        C  0.31156896  0.23352341  0.08926280    -0.08300
C633        C  0.28389483  0.20456724  0.07505888    -0.02800
C634        C  0.29460364  0.18040528  0.04232417     0.04000
N635        N  0.26694552  0.15182433  0.02583927     0.66500
H636        H  0.33849503  0.16915799  0.99687951     0.15400
H637        H  0.30342745  0.25267349  0.11426068     0.15100
N638        N  0.37486124  0.27083232  0.08445833     0.74200
O639        O  0.24201344  0.16291021  0.99925435    -0.39200
O640        O  0.27229875  0.11473055  0.03234274    -0.39200
O641        O  0.36758190  0.30752318  0.07751532    -0.39900
O642        O  0.40008322  0.26142849  0.11138712    -0.39900
C643        C  0.56435420  0.22875819  0.87089938    -0.12200
C644        C  0.56170216  0.20899676  0.90799876     0.04800
C645        C  0.59061550  0.17881244  0.91767657    -0.07500
C646        C  0.62351934  0.17228645  0.89225165    -0.08300
C647        C  0.62790233  0.19456487  0.85687116    -0.02800
C648        C  0.59646073  0.22081126  0.84484487     0.04000
N649        N  0.59810297  0.24111118  0.80690748     0.66500
H650        H  0.54108511  0.24989608  0.86180446     0.15400
H651        H  0.64761839  0.15246577  0.90216363     0.15100
N652        N  0.58897256  0.15665543  0.95463492     0.74200
O653        O  0.59104960  0.22168488  0.77515175    -0.39200
O654        O  0.60012178  0.27904787  0.80552509    -0.39200
O655        O  0.56545773  0.12688026  0.95744813    -0.39900
O656        O  0.61811827  0.15933250  0.97895876    -0.39900
C657        C  0.08007621  0.57500509  0.23372721    -0.12200
C658        C  0.07649525  0.53576111  0.24867326     0.04800
C659        C  0.10670691  0.52056263  0.27478153    -0.07500
C660        C  0.14092098  0.54358788  0.28347943    -0.08300
C661        C  0.14625503  0.58144876  0.26578748    -0.02800
C662        C  0.11446753  0.59805128  0.24245265     0.04000
N663        N  0.11816465  0.63739005  0.22521661     0.66500
H664        H  0.05616508  0.58781491  0.21540559     0.15400
H665        H  0.16552584  0.52970347  0.30006002     0.15100
N666        N  0.10510220  0.48000559  0.28921153     0.74200
O667        O  0.12263788  0.64134037  0.18777155    -0.39200
O668        O  0.10962424  0.66780882  0.24611608    -0.39200
O669        O  0.12207555  0.45261509  0.26928650    -0.39900
O670        O  0.09468856  0.47310453  0.32501375    -0.39900
C671        C  0.03978037  0.35333683  0.18663850    -0.12200
C672        C  0.04141164  0.37046103  0.22555911     0.04800
C673        C  0.06627049  0.35181470  0.25458978    -0.07500
C674        C  0.08584102  0.31554353  0.24522011    -0.08300
C675        C  0.07840078  0.29542556  0.20861864    -0.02800
C676        C  0.05767185  0.31612872  0.17814516     0.04000
N677        N  0.04975651  0.29745292  0.14033143     0.66500
H678        H  0.02194039  0.36734345  0.16308026     0.15400
H679        H  0.10188295  0.29988616  0.26908119     0.15100
N680        N  0.06958041  0.36714370  0.29452461     0.74200
O681        O  0.01879074  0.27575026  0.13601902    -0.39200
O682        O  0.06971136  0.30800623  0.10984421    -0.39200
O683        O  0.04154992  0.36017223  0.31915802    -0.39900
O684        O  0.10376271  0.37744626  0.30774912    -0.39900
C685        C  0.90234762  0.59098780  0.19560213    -0.12200
C686        C  0.91055124  0.57571750  0.23473829     0.04800
C687        C  0.90110229  0.60025496  0.26772432    -0.07500
C688        C  0.88731779  0.63975848  0.26109386    -0.08300
C689        C  0.88389767  0.65632882  0.22196227    -0.02800
C690        C  0.88949293  0.63080581  0.18907286     0.04000
N691        N  0.88701805  0.64611977  0.14894941     0.66500
H692        H  0.90834899  0.57282118  0.16935277     0.15400
H693        H  0.88302303  0.65897135  0.28698247     0.15100
N694        N  0.90866713  0.58707240  0.30796651     0.74200
O695        O  0.91879416  0.65499755  0.13010946    -0.39200
O696        O  0.85304154  0.65346933  0.13336938    -0.39200
O697        O  0.94220451  0.59468704  0.32433287    -0.39900
O698        O  0.87991257  0.57408382  0.32911264    -0.39900
C699        C  0.25714529  0.52507635  0.11119225    -0.12200
C700        C  0.22471384  0.53624051  0.08581590     0.04800
C701        C  0.20076452  0.56930364  0.09665977    -0.07500
C702        C  0.20817072  0.58896855  0.13314781    -0.08300
C703        C  0.23876146  0.57590301  0.15992261    -0.02800
C704        C  0.26422701  0.54438579  0.14790846     0.04000
N705        N  0.29518176  0.52934308  0.17391706     0.66500
H706        H  0.27654886  0.50014600  0.10307028     0.15400
H707        H  0.18828647  0.61334966  0.14171666     0.15100
N708        N  0.16906435  0.58343624  0.07102594     0.74200
O709        O  0.28685672  0.50241677  0.19946068    -0.39200
O710        O  0.33160873  0.53738535  0.16645850    -0.39200
O711        O  0.13284383  0.57591130  0.07987365    -0.39900
O712        O  0.17675070  0.60896842  0.04390485    -0.39900
C713        C  0.17126184  0.34812769  0.01930016    -0.12200
C714        C  0.20069472  0.37424024  0.03529030     0.04800
C715        C  0.21724623  0.36551915  0.07323243    -0.07500
C716        C  0.20639833  0.32988224  0.09312648    -0.08300
C717        C  0.18042934  0.30151741  0.07510379    -0.02800
C718        C  0.16135313  0.31178534  0.03864962     0.04000
N719        N  0.13546449  0.28374056  0.01878236     0.66500
H720        H  0.15716554  0.35514885  0.99067314     0.15400
H721        H  0.22183952  0.32220877  0.12091144     0.15100
N722        N  0.24563024  0.39213682  0.09160794     0.74200
O723        O  0.09802965  0.28443400  0.02546773    -0.39200
O724        O  0.14890963  0.26283899  0.99023857    -0.39200
O725        O  0.23381011  0.41695888  0.11762512    -0.39900
O726        O  0.28292721  0.38641411  0.08674500    -0.39900
C727        C  0.18771568  0.61161455  0.92955705    -0.12200
C728        C  0.22373590  0.58893102  0.92613198     0.04800
C729        C  0.25537404  0.60443191  0.90273698    -0.07500
C730        C  0.25051394  0.64183089  0.88386254    -0.08300
C731        C  0.21570125  0.66571498  0.88981847    -0.02800
C732        C  0.18355701  0.64962404  0.91185571     0.04000
N733        N  0.14765955  0.67234143  0.91880468     0.66500
H734        H  0.16266743  0.60032947  0.94716368     0.15400
H735        H  0.27565254  0.65355015  0.86664208     0.15100
N736        N  0.29301235  0.58365747  0.89886415     0.74200
O737        O  0.11781283  0.66840423  0.89550523    -0.39200
O738        O  0.14366448  0.69150302  0.95119655    -0.39200
O739        O  0.30673239  0.57636968  0.86433305    -0.39900
O740        O  0.31643685  0.58144651  0.92877908    -0.39900
C741        C  0.35847826  0.20659825  0.81428730    -0.12200
C742        C  0.37066796  0.23957304  0.79008355     0.04800
C743        C  0.39555766  0.26912993  0.80708875    -0.07500
C744        C  0.41085553  0.26335869  0.84593715    -0.08300
C745        C  0.40152067  0.22859231  0.86883494    -0.02800
C746        C  0.37359048  0.20095211  0.85330710     0.04000
N747        N  0.35984529  0.16755018  0.87681277     0.66500
H748        H  0.33837007  0.18394231  0.80209234     0.15400
H749        H  0.43170794  0.28564042  0.85753917     0.15100
N750        N  0.40828491  0.30341295  0.78434729     0.74200
O751        O  0.33453903  0.17327961  0.90444475    -0.39200
O752        O  0.36783180  0.13207224  0.86597487    -0.39200
O753        O  0.39116528  0.33691621  0.78958762    -0.39900
O754        O  0.44054863  0.30184326  0.76441244    -0.39900
C755        C  0.41723301  0.09595998  0.66255110    -0.12200
C756        C  0.40206065  0.06990689  0.69248886     0.04800
C757        C  0.36747540  0.08129994  0.71374611    -0.07500
C758        C  0.35115495  0.11974662  0.70771327    -0.08300
C759        C  0.36949188  0.14782707  0.68153001    -0.02800
C760        C  0.40138233  0.13484959  0.65710950     0.04000
N761        N  0.42080527  0.16208150  0.63003911     0.66500
H762        H  0.44327362  0.08706629  0.64509768     0.15400
H763        H  0.32619303  0.12909777  0.72646432     0.15100
N764        N  0.34903243  0.05448806  0.74192540     0.74200
O765        O  0.45035443  0.18287787  0.64193961    -0.39200
O766        O  0.41200121  0.16132927  0.59313993    -0.39200
O767        O  0.35228454  0.06114248  0.77908893    -0.39900
O768        O  0.32417745  0.02845761  0.72966736    -0.39900
C769        C  0.64309630  0.01815697  0.69080299    -0.12200
C770        C  0.65312567  0.04615834  0.72102152     0.04800
C771        C  0.62208606  0.06262586  0.74430426    -0.07500
C772        C  0.58186036  0.05215806  0.73602142    -0.08300
C773        C  0.57180340  0.02503305  0.70488954    -0.02800
C774        C  0.60309348  0.00788777  0.68233970     0.04000
N775        N  0.59497474  0.97910993  0.65155390     0.66500
H776        H  0.66663968  0.00546120  0.67218854     0.15400
H777        H  0.55829872  0.06476560  0.75462989     0.15100
N778        N  0.63079065  0.09071865  0.77556172     0.74200
O779        O  0.59249073  0.99065382  0.61545305    -0.39200
O780        O  0.59768046  0.94197720  0.65937792    -0.39200
O781        O  0.62145906  0.12733056  0.77121956    -0.39900
O782        O  0.64238426  0.07800189  0.80947912    -0.39900
C783        C  0.32225391  0.84178659  0.71994602    -0.12200
C784        C  0.30006907  0.85261807  0.75432642     0.04800
C785        C  0.31764638  0.87968653  0.78138085    -0.07500
C786        C  0.35163853  0.90168745  0.76967884    -0.08300
C787        C  0.36917165  0.89695095  0.73128229    -0.02800
C788        C  0.35517157  0.86511113  0.70689357     0.04000
N789        N  0.37168815  0.85751654  0.66793920     0.66500
H790        H  0.30919710  0.82040153  0.69907459     0.15400
H791        H  0.36271280  0.92450945  0.79010845     0.15100
N792        N  0.29788808  0.88971296  0.81808213     0.74200
O793        O  0.36758029  0.88365839  0.64057607    -0.39200
O794        O  0.38010087  0.82180991  0.65815768    -0.39200
O795        O  0.31058487  0.87471973  0.85064367    -0.39900
O796        O  0.27365279  0.91901186  0.81895158    -0.39900
C797        C  0.77876109  0.87830758  0.30809788    -0.12200
C798        C  0.74853736  0.85030329  0.29963129     0.04800
C799        C  0.71772935  0.84382459  0.32834266    -0.07500
C800        C  0.71369880  0.86993889  0.36097334    -0.08300
C801        C  0.74158036  0.90085261  0.36718088    -0.02800
C802        C  0.77552540  0.90370086  0.34127598     0.04000
N803        N  0.80469713  0.93513998  0.34540448     0.66500
H804        H  0.80234817  0.88410066  0.28633510     0.15400
H805        H  0.68853884  0.86615910  0.38127276     0.15100
N806        N  0.68881572  0.81229068  0.32316853     0.74200
O807        O  0.83919473  0.92713874  0.35948157    -0.39200
O808        O  0.79882404  0.96842201  0.32790804    -0.39200
O809        O  0.69915385  0.77637574  0.33031511    -0.39900
O810        O  0.65183612  0.82080049  0.31989553    -0.39900
C811        C  0.77737173  0.05238968  0.57607855    -0.12200
C812        C  0.74074920  0.05356120  0.55411459     0.04800
C813        C  0.71054378  0.08041319  0.56649921    -0.07500
C814        C  0.71534000  0.10133747  0.60268527    -0.08300
C815        C  0.74882126  0.09413500  0.62813303    -0.02800
C816        C  0.78164024  0.07257877  0.61274540     0.04000
N817        N  0.81745891  0.06681936  0.63608596     0.66500
H818        H  0.80198754  0.03336021  0.56632986     0.15400
H819        H  0.69008859  0.11883338  0.61368249     0.15100
N820        N  0.67413831  0.08531976  0.54389927     0.74200
O821        O  0.82109717  0.03590772  0.65800976    -0.39200
O822        O  0.84773552  0.08897913  0.62976334    -0.39200
O823        O  0.64188643  0.06951457  0.55641154    -0.39900
O824        O  0.67270347  0.11109303  0.51594189    -0.39900
C825        C  0.73217334  0.12707885  0.34248840    -0.12200
C826        C  0.69557424  0.14667017  0.35164424     0.04800
C827        C  0.66568762  0.12512243  0.37220860    -0.07500
C828        C  0.67526596  0.08771703  0.38909406    -0.08300
C829        C  0.71450623  0.07115153  0.38612742    -0.02800
C830        C  0.74228530  0.09006655  0.36040363     0.04000
N831        N  0.78149330  0.07358987  0.35398241     0.66500
H832        H  0.75538264  0.14331478  0.32621101     0.15400
H833        H  0.65256302  0.07343880  0.40767237     0.15100
N834        N  0.62821717  0.14371191  0.38243320     0.74200
O835        O  0.78805115  0.05368407  0.32249494    -0.39200
O836        O  0.81097373  0.08666236  0.37416793    -0.39200
O837        O  0.62489296  0.16200126  0.41541364    -0.39900
O838        O  0.59700809  0.13597560  0.36207139    -0.39900
C839        C  0.84259703  0.26260660  0.40302405    -0.12200
C840        C  0.85239058  0.23602489  0.43468321     0.04800
C841        C  0.82130129  0.21750674  0.45652785    -0.07500
C842        C  0.78118414  0.22499651  0.44588484    -0.08300
C843        C  0.77149705  0.24981327  0.41287616    -0.02800
C844        C  0.80250493  0.26926138  0.39167006     0.04000
N845        N  0.79390506  0.29231268  0.35618156     0.66500
H846        H  0.86632662  0.27798626  0.38671698     0.15400
H847        H  0.75749521  0.20859501  0.46130131     0.15100
N848        N  0.82996124  0.19092185  0.48932342     0.74200
O849        O  0.77282751  0.32387049  0.35833531    -0.39200
O850        O  0.80507557  0.27967672  0.32229181    -0.39200
O851        O  0.82394483  0.20242943  0.52487091    -0.39900
O852        O  0.83665107  0.15415771  0.48256433    -0.39900
C853        C  0.24416891  0.44334346  0.79849925    -0.12200
C854        C  0.25918527  0.40402913  0.79371917     0.04800
C855        C  0.26239099  0.37894543  0.82789342    -0.07500
C856        C  0.24971103  0.39302004  0.86551269    -0.08300
C857        C  0.23172889  0.43112026  0.86952463    -0.02800
C858        C  0.23003386  0.45679139  0.83578532     0.04000
N859        N  0.21389191  0.49655669  0.83888674     0.66500
H860        H  0.23987563  0.46243631  0.77230249     0.15400
H861        H  0.25278261  0.37359785  0.89162152     0.15100
N862        N  0.27481083  0.33786294  0.82414931     0.74200
O863        O  0.23755236  0.52623981  0.84084719    -0.39200
O864        O  0.17694884  0.50248016  0.83174061    -0.39200
O865        O  0.30697201  0.32615509  0.84090627    -0.39900
O866        O  0.25061515  0.31215660  0.81002415    -0.39900
C867        C  0.10224517  0.40693777  0.68671704    -0.12200
C868        C  0.08266627  0.40277982  0.72430371     0.04800
C869        C  0.09767787  0.37388213  0.75173056    -0.07500
C870        C  0.13293244  0.35255305  0.74214870    -0.08300
C871        C  0.15551279  0.36183666  0.70745332    -0.02800
C872        C  0.13818552  0.38685964  0.67816247     0.04000
N873        N  0.15927384  0.39646474  0.64196783     0.66500
H874        H  0.09103431  0.42791194  0.66427047     0.15400
H875        H  0.14611788  0.33310546  0.76494716     0.15100
N876        N  0.07951010  0.36727463  0.79016881     0.74200
O877        O  0.15346248  0.37543840  0.61100199    -0.39200
O878        O  0.17762091  0.42964557  0.63891586    -0.39200
O879        O  0.07335450  0.33162802  0.80201049    -0.39900
O880        O  0.07980781  0.39522804  0.81573024    -0.39900
C881        C  0.87319701  0.37658040  0.73180529    -0.12200
C882        C  0.91511640  0.37489707  0.73707944     0.04800
C883        C  0.93209706  0.34061390  0.75582460    -0.07500
C884        C  0.90779159  0.30770006  0.76612943    -0.08300
C885        C  0.86640327  0.30791595  0.75766491    -0.02800
C886        C  0.84878562  0.34355821  0.74226178     0.04000
N887        N  0.80607997  0.34606806  0.73650996     0.66500
H888        H  0.85923853  0.40389902  0.72077536     0.15400
H889        H  0.92209415  0.28028858  0.77686456     0.15100
N890        N  0.97442373  0.33851823  0.76378472     0.74200
O891        O  0.78327677  0.34841343  0.76669307    -0.39200
O892        O  0.79170168  0.35202438  0.70183919    -0.39200
O893        O  0.98690773  0.33747587  0.79962165    -0.39900
O894        O  0.99873531  0.33238941  0.73537123    -0.39900
C895        C  0.07627967  0.58976182  0.71587037    -0.12200
C896        C  0.05433340  0.57339194  0.74781848     0.04800
C897        C  0.05515884  0.59395814  0.78539266    -0.07500
C898        C  0.07336636  0.63200605  0.78855142    -0.08300
C899        C  0.09087954  0.65032101  0.75508092    -0.02800
C900        C  0.09524922  0.62733583  0.71948332     0.04000
N901        N  0.11568257  0.64369574  0.68530745     0.66500
H902        H  0.07772891  0.57398069  0.68748996     0.15400
H903        H  0.06943870  0.64911411  0.81592209     0.15100
N904        N  0.03429377  0.57876236  0.81978306     0.74200
O905        O  0.15374023  0.64420934  0.68477029    -0.39200
O906        O  0.09624526  0.65125723  0.65346425    -0.39200
O907        O  0.05417962  0.56439966  0.84891083    -0.39900
O908        O  0.99734251  0.58668875  0.82423784    -0.39900
C909        C  0.97809990  0.74504284  0.33709371    -0.12200
C910        C  0.94988890  0.75895506  0.36494053     0.04800
C911        C  0.91749215  0.78327393  0.35148682    -0.07500
C912        C  0.91175267  0.78977533  0.31022971    -0.08300
C913        C  0.93781333  0.77256167  0.28214817    -0.02800
C914        C  0.97278310  0.75236566  0.29601704     0.04000
N915        N  0.00127515  0.73609365  0.26830076     0.66500
H916        H  0.00439488  0.72838590  0.34728033     0.15400
H917        H  0.88434805  0.80453836  0.30004282     0.15100
N918        N  0.88805130  0.79843152  0.37883309     0.74200
O919        O  0.00217503  0.69861523  0.26216915    -0.39200
O920        O  0.03043306  0.75764038  0.25679511    -0.39200
O921        O  0.89680021  0.82792993  0.40097909    -0.39900
O922        O  0.85146598  0.78900899  0.37397676    -0.39900
C923        C  0.00108014  0.72613166  0.62087996    -0.12200
C924        C  0.02552167  0.74472787  0.59218323     0.04800
C925        C  0.05647145  0.77127182  0.60482066    -0.07500
C926        C  0.06368084  0.77702786  0.64589594    -0.08300
C927        C  0.04043829  0.75681714  0.67458231    -0.02800
C928        C  0.00783998  0.73252613  0.66178128     0.04000
N929        N  0.98277482  0.71233962  0.69040035     0.66500
H930        H  0.97592793  0.70746718  0.61152434     0.15400
H931        H  0.08985655  0.79409646  0.65531044     0.15100
N932        N  0.08206742  0.79093789  0.57622990     0.74200
O933        O  0.95739617  0.73221704  0.71034346    -0.39200
O934        O  0.98250072  0.67435512  0.69221038    -0.39200
O935        O  0.08294416  0.82888921  0.57416896    -0.39900
O936        O  0.10338314  0.77043159  0.55256486    -0.39900
C937        C  0.10463631  0.75132537  0.39614075    -0.12200
C938        C  0.09459635  0.73007808  0.43099200     0.04800
C939        C  0.11901109  0.69715049  0.44341993    -0.07500
C940        C  0.15422720  0.68786190  0.42219968    -0.08300
C941        C  0.16562327  0.71098859  0.38893325    -0.02800
C942        C  0.13943060  0.74157222  0.37473216     0.04000
N943        N  0.14932402  0.76456374  0.33969392     0.66500
H944        H  0.08505160  0.77509716  0.38506998     0.15400
H945        H  0.17465632  0.66525087  0.43415241     0.15100
N946        N  0.10959808  0.67428862  0.47880330     0.74200
O947        O  0.14208943  0.75023612  0.30537401    -0.39200
O948        O  0.15912313  0.80113625  0.34299148    -0.39200
O949        O  0.10648064  0.63645230  0.47696501    -0.39900
O950        O  0.10635388  0.69161078  0.51230718    -0.39900
C951        C  0.25623594  0.83153718  0.36939504    -0.12200
C952        C  0.27486679  0.80161915  0.39324444     0.04800
C953        C  0.28561415  0.81117060  0.43302938    -0.07500
C954        C  0.27466419  0.84856432  0.44914371    -0.08300
C955        C  0.25245043  0.87674843  0.42644692    -0.02800
C956        C  0.24486604  0.86878078  0.38568170     0.04000
N957        N  0.22541044  0.89799145  0.36061540     0.66500
H958        H  0.24698214  0.82445379  0.33895761     0.15400
H959        H  0.28238523  0.85512750  0.48011237     0.15100
N960        N  0.30382445  0.78164419  0.45867482     0.74200
O961        O  0.24640175  0.92331548  0.34153191    -0.39200
O962        O  0.18844791  0.89416969  0.35227716    -0.39200
O963        O  0.34131153  0.78297115  0.46527113    -0.39900
O964        O  0.28184730  0.75919163  0.48008137    -0.39900
C965        C  0.82582618  0.55835571  0.68680457    -0.12200
C966        C  0.81591235  0.58979500  0.71252664     0.04800
C967        C  0.84305566  0.60000870  0.74388413    -0.07500
C968        C  0.87713331  0.57599512  0.75163578    -0.08300
C969        C  0.88508005  0.54235223  0.72782529    -0.02800
C970        C  0.85952003  0.53430952  0.69445097     0.04000
N971        N  0.86522628  0.49944550  0.67006123     0.66500
H972        H  0.80476504  0.54921127  0.66355592     0.15400
H973        H  0.89738519  0.58374549  0.77603758     0.15100
N974        N  0.83484819  0.63346909  0.76945733     0.74200
O975        O  0.84767257  0.46707246  0.67950411    -0.39200
O976        O  0.87948283  0.50340567  0.63516887    -0.39200
O977        O  0.82481554  0.62755104  0.80554440    -0.39900
O978        O  0.84318264  0.66867041  0.75766689    -0.39900
C979        C  0.71676078  0.50549637  0.84151644    -0.12200
C980        C  0.73039107  0.52873814  0.87390952     0.04800
C981        C  0.73059170  0.57094621  0.87038974    -0.07500
C982        C  0.72005236  0.58905054  0.83373535    -0.08300
C983        C  0.70884689  0.56564758  0.80041895    -0.02800
C984        C  0.70621983  0.52352208  0.80487599     0.04000
N985        N  0.69639445  0.49844377  0.77145486     0.66500
H986        H  0.71445418  0.47305278  0.84469374     0.15400
H987        H  0.72369511  0.62134563  0.83030641     0.15100
N988        N  0.74263563  0.59565394  0.90334929     0.74200
O989        O  0.72416491  0.48588560  0.74890525    -0.39200
O990        O  0.66180619  0.48271028  0.76924648    -0.39200
O991        O  0.77871931  0.60754132  0.90578608    -0.39900
O992        O  0.71613598  0.61156890  0.92528029    -0.39900
C993        C  0.77900567  0.59336039  0.02029696    -0.12200
C994        C  0.75262615  0.56658955  0.03980630     0.04800
C995        C  0.74092588  0.57439618  0.07947453    -0.07500
C996        C  0.75255453  0.61064069  0.09751373    -0.08300
C997        C  0.77484331  0.63972995  0.07603359    -0.02800
C998        C  0.79005639  0.62984506  0.03799608     0.04000
N999        N  0.81180430  0.65884248  0.01473988     0.66500
H1000       H  0.78947149  0.58678007  0.99021160     0.15400
H1001       H  0.74020885  0.61812310  0.12666476     0.15100
N1002       N  0.71665484  0.54636862  0.10135075     0.74200
O1003       O  0.84985577  0.65798976  0.01452298    -0.39200
O1004       O  0.79324415  0.68068480  0.98963425    -0.39200
O1005       O  0.73341056  0.51993712  0.12307848    -0.39900
O1006       O  0.67918983  0.55229168  0.10438897    -0.39900
C1007       C  0.75506373  0.34182733  0.91013365    -0.12200
C1008       C  0.72168525  0.36821908  0.90770746     0.04800
C1009       C  0.69132339  0.36036618  0.87926422    -0.07500
C1010       C  0.69367377  0.32555620  0.85577469    -0.08300
C1011       C  0.72540812  0.29750405  0.86068731    -0.02800
C1012       C  0.75734379  0.30703780  0.88683640     0.04000
N1013       N  0.79091950  0.28051466  0.89227632     0.66500
H1014       H  0.77945721  0.34759182  0.93110644     0.15400
H1015       H  0.66897880  0.31907130  0.83538475     0.15100
N1016       N  0.65769526  0.38686118  0.87422986     0.74200
O1017       O  0.81999840  0.28193756  0.86794075    -0.39200
O1018       O  0.79454980  0.26072273  0.92455387    -0.39200
O1019       O  0.65548626  0.40899373  0.84337507    -0.39900
O1020       O  0.62707508  0.38257867  0.89626084    -0.39900
C1021       C  0.61227728  0.76075220  0.03165103    -0.12200
C1022       C  0.58851379  0.72556746  0.03596118     0.04800
C1023       C  0.60299785  0.69404249  0.06014294    -0.07500
C1024       C  0.64125126  0.69727899  0.07772514    -0.08300
C1025       C  0.66611209  0.73134026  0.07121167    -0.02800
C1026       C  0.65061469  0.76390506  0.04905097     0.04000
N1027       N  0.67427547  0.79910438  0.04151808     0.66500
H1028       H  0.60164868  0.78574594  0.01341025     0.15400
H1029       H  0.65226891  0.67204553  0.09541511     0.15100
N1030       N  0.57933147  0.65879916  0.06740168     0.74200
O1031       O  0.69431492  0.80192131  0.00946669    -0.39200
O1032       O  0.66984811  0.82972200  0.06338053    -0.39200
O1033       O  0.59064784  0.62531991  0.05363083    -0.39900
O1034       O  0.55133321  0.65987796  0.09295109    -0.39900
C1035       C  0.35596599  0.78187839  0.93277104    -0.12200
C1036       C  0.38061078  0.75222164  0.91521367     0.04800
C1037       C  0.37027115  0.73746097  0.87710855    -0.07500
C1038       C  0.33374045  0.74941085  0.85927498    -0.08300
C1039       C  0.30634078  0.77459037  0.87970603    -0.02800
C1040       C  0.31902157  0.79301350  0.91547959     0.04000
N1041       N  0.29261617  0.81894223  0.93724938     0.66500
H1042       H  0.36440739  0.79491050  0.96140531     0.15400
H1043       H  0.32440385  0.73493300  0.83162119     0.15100
N1044       N  0.39600433  0.70991856  0.85657653     0.74200
O1045       O  0.26728589  0.80393466  0.96124981    -0.39200
O1046       O  0.30001102  0.85619567  0.93861092    -0.39200
O1047       O  0.38659790  0.67313235  0.85487875    -0.39900
O1048       O  0.42388677  0.72329771  0.83451366    -0.39900
C1049       C  0.68302490  0.41648937  0.10292840    -0.12200
C1050       C  0.71342535  0.40184360  0.07734371     0.04800
C1051       C  0.73338289  0.36591764  0.08754629    -0.07500
C1052       C  0.72476402  0.34698102  0.12421385    -0.08300
C1053       C  0.69706753  0.36382167  0.15147444    -0.02800
C1054       C  0.67494393  0.39804565  0.13985944     0.04000
N1055       N  0.64832013  0.41754834  0.16729023     0.66500
H1056       H  0.66698926  0.44396662  0.09530961     0.15400
H1057       H  0.74239795  0.32086901  0.13305594     0.15100
N1058       N  0.76275874  0.34870065  0.06144796     0.74200
O1059       O  0.66204646  0.44363778  0.19117639    -0.39200
O1060       O  0.61067427  0.41399824  0.16281999    -0.39200
O1061       O  0.79979335  0.35220741  0.06963079    -0.39900
O1062       O  0.75168184  0.32457783  0.03437980    -0.39900
C1063       C  0.84471406  0.41881369  0.27442072    -0.12200
C1064       C  0.87127658  0.40767352  0.24333459     0.04800
C1065       C  0.86131217  0.37457050  0.21922472    -0.07500
C1066       C  0.82436939  0.35488706  0.22494296    -0.08300
C1067       C  0.79590388  0.36868423  0.25326303    -0.02800
C1068       C  0.80702846  0.40015148  0.27915696     0.04000
N1069       N  0.77904657  0.41642741  0.30733155     0.66500
H1070       H  0.85228553  0.44386700  0.29381246     0.15400
H1071       H  0.81640697  0.33062213  0.20470891     0.15100
N1072       N  0.88798307  0.36092343  0.18854012     0.74200
O1073       O  0.78616054  0.41319565  0.34447325    -0.39200
O1074       O  0.75222487  0.44067916  0.29531270    -0.39200
O1075       O  0.91079957  0.33121691  0.19532943    -0.39900
O1076       O  0.88343508  0.37352969  0.15298465    -0.39900
C1077       C  0.36144522  0.71362380  0.11887556    -0.12200
C1078       C  0.38128632  0.69110851  0.14908558     0.04800
C1079       C  0.42089675  0.67781025  0.14205687    -0.07500
C1080       C  0.44105884  0.69025343  0.10715363    -0.08300
C1081       C  0.42233457  0.71581906  0.07883312    -0.02800
C1082       C  0.38168994  0.72621248  0.08412512     0.04000
N1083       N  0.36075703  0.74977091  0.05469041     0.66500
H1084       H  0.33117516  0.72476197  0.12414030     0.15400
H1085       H  0.47175974  0.68025894  0.10229087     0.15100
N1086       N  0.44219938  0.65498493  0.17186172     0.74200
O1087       O  0.34247147  0.73250865  0.02625952    -0.39200
O1088       O  0.35550140  0.78694504  0.06039798    -0.39200
O1089       O  0.43224895  0.61896867  0.17899869    -0.39900
O1090       O  0.47018945  0.67113407  0.19191836    -0.39900
C1091       C  0.35570355  0.82167758  0.21232917    -0.12200
C1092       C  0.37007712  0.79548278  0.24265945     0.04800
C1093       C  0.40273727  0.80775244  0.26650825    -0.07500
C1094       C  0.42297962  0.84340610  0.25701392    -0.08300
C1095       C  0.41091177  0.86800078  0.22438318    -0.02800
C1096       C  0.37598154  0.85751749  0.20274706     0.04000
N1097       N  0.36078233  0.88242975  0.17101334     0.66500
H1098       H  0.33067590  0.81235812  0.19346162     0.15400
H1099       H  0.44891711  0.85168709  0.27513638     0.15100
N1100       N  0.41785795  0.78275925  0.29823487     0.74200
O1101       O  0.37739853  0.88117332  0.13699855    -0.39200
O1102       O  0.32585129  0.89723118  0.17393633    -0.39200
O1103       O  0.40600109  0.78852407  0.33372742    -0.39900
O1104       O  0.44787984  0.76027739  0.29208142    -0.39900
C1105       C  0.55314882  0.80682406  0.67954236    -0.12200
C1106       C  0.58995883  0.80598552  0.70009942     0.04800
C1107       C  0.60097660  0.83930068  0.72434467    -0.07500
C1108       C  0.57392487  0.87126168  0.72957731    -0.08300
C1109       C  0.53569214  0.87006470  0.71180956    -0.02800
C1110       C  0.52558221  0.83772488  0.68623140     0.04000
N1111       N  0.48558632  0.83352243  0.67064382     0.66500
H1112       H  0.54337076  0.78080643  0.66248899     0.15400
H1113       H  0.58262884  0.89677072  0.74787476     0.15100
N1114       N  0.63823369  0.83969259  0.74620333     0.74200
O1115       O  0.45879828  0.81773443  0.69246664    -0.39200
O1116       O  0.47909301  0.83809529  0.63352355    -0.39200
O1117       O  0.66617995  0.86273204  0.73467555    -0.39900
O1118       O  0.63900955  0.82647117  0.78179182    -0.39900
C1119       C  0.60520651  0.74024632  0.83172309    -0.12200
C1120       C  0.59202162  0.71149562  0.80345433     0.04800
C1121       C  0.55777666  0.68819594  0.81220240    -0.07500
C1122       C  0.53607167  0.69578283  0.84724470    -0.08300
C1123       C  0.54748517  0.72662512  0.87404299    -0.02800
C1124       C  0.58295205  0.74840048  0.86645138     0.04000
N1125       N  0.59653479  0.77901305  0.89329170     0.66500
H1126       H  0.63144856  0.75859307  0.82526372     0.15400
H1127       H  0.50909743  0.67817536  0.85283679     0.15100
N1128       N  0.54220867  0.65973116  0.78401139     0.74200
O1129       O  0.62020878  0.76995043  0.92169926    -0.39200
O1130       O  0.59082901  0.81557312  0.88441186    -0.39200
O1131       O  0.54657035  0.62252486  0.79061548    -0.39900
O1132       O  0.51837046  0.67137129  0.75667065    -0.39900
C1133       C  0.81260117  0.71283721  0.53755804    -0.12200
C1134       C  0.81194049  0.71959100  0.57909198     0.04800
C1135       C  0.84531835  0.73865849  0.59738087    -0.07500
C1136       C  0.87801673  0.75162035  0.57391288    -0.09500
C1137       C  0.87759891  0.74639634  0.53214152    -0.02800
C1138       C  0.84462435  0.72673344  0.51409592     0.04000
N1139       N  0.84242066  0.72293683  0.47141371     0.66500
H1140       H  0.78621317  0.70055362  0.52263836     0.15400
H1141       H  0.90426776  0.76458382  0.58845654     0.15100
N1142       N  0.84574352  0.74579934  0.63969246     0.74200
O1143       O  0.84612851  0.68889868  0.45515035    -0.39200
O1144       O  0.83747358  0.75391727  0.44987620    -0.39200
O1145       O  0.85232847  0.71698261  0.66369965    -0.39900
O1146       O  0.84435040  0.78137080  0.65280369    -0.39900
C1147       C  0.70715068  0.81109782  0.53543781    -0.12200
C1148       C  0.71013864  0.81123199  0.57738519     0.04800
C1149       C  0.72335155  0.84679542  0.59645929    -0.07500
C1150       C  0.73538896  0.88043447  0.57355472    -0.08300
C1151       C  0.73543098  0.87889700  0.53146916    -0.02800
C1152       C  0.72010148  0.84408592  0.51252929     0.04000
N1153       N  0.71799409  0.84158339  0.46971317     0.66500
H1154       H  0.69860779  0.78362577  0.52007641     0.15400
H1155       H  0.74377637  0.90807112  0.58864782     0.15100
N1156       N  0.72350499  0.84941617  0.63919661     0.74200
O1157       O  0.75014760  0.83890871  0.44971355    -0.39200
O1158       O  0.68462820  0.83419294  0.45291628    -0.39200
O1159       O  0.75617196  0.84532180  0.65835662    -0.39900
O1160       O  0.69322800  0.86425198  0.65654061    -0.39900
C1161       C  0.07407321  0.91959957  0.87078127    -0.12200
C1162       C  0.07649583  0.87752929  0.87683045     0.04800
C1163       C  0.05120190  0.86170767  0.90786286    -0.07500
C1164       C  0.02466346  0.88705507  0.93022845    -0.08300
C1165       C  0.02156362  0.92880434  0.92269295    -0.02800
C1166       C  0.04760026  0.94470607  0.89261194     0.04000
N1167       N  0.04906307  0.98698981  0.88420296     0.66500
H1168       H  0.09225465  0.93428831  0.84845310     0.15400
H1169       H  0.00524464  0.87357996  0.95266518     0.15100
N1170       N  0.05141109  0.81957008  0.91681437     0.74200
O1171       O  0.08163225  0.00540030  0.89102981    -0.39200
O1172       O  0.02510308  0.00159511  0.85844546    -0.39200
O1173       O  0.06961029  0.80706262  0.94781394    -0.39900
O1174       O  0.02637568  0.79677827  0.89954427    -0.39900
C1175       C  0.86069436  0.91514310  0.07641972    -0.12200
C1176       C  0.86980379  0.87361473  0.07917727     0.04800
C1177       C  0.90271929  0.86026937  0.05493955    -0.07500
C1178       C  0.92471401  0.88748141  0.02991338    -0.08300
C1179       C  0.91480653  0.92867124  0.02694788    -0.02800
C1180       C  0.88235636  0.94212682  0.05127163     0.04000
N1181       N  0.87108883  0.98371621  0.05152164     0.66500
H1182       H  0.83642329  0.92771542  0.09372283     0.15400
H1183       H  0.94880536  0.87581283  0.01139788     0.15100
N1184       N  0.91395988  0.81870540  0.05459151     0.74200
O1185       O  0.83471877  0.99345211  0.04567250    -0.39200
O1186       O  0.89560129  0.00968082  0.06458340    -0.39200
O1187       O  0.89843006  0.79559874  0.02882119    -0.39900
O1188       O  0.94537939  0.80758499  0.07307442    -0.39900
C1189       C  0.85300663  0.08585496  0.90295126    -0.12200
C1190       C  0.85477229  0.08446912  0.86040697     0.04800
C1191       C  0.88394037  0.05769474  0.84435924    -0.07500
C1192       C  0.90882808  0.03342935  0.86959840    -0.08300
C1193       C  0.90665886  0.03420500  0.91228311    -0.02800
C1194       C  0.87814998  0.06187526  0.92833206     0.04000
N1195       N  0.87387746  0.06649098  0.97079419     0.66500
H1196       H  0.83261515  0.10607202  0.91761438     0.15400
H1197       H  0.92987738  0.01483258  0.85457863     0.15100
N1198       N  0.88898878  0.05420254  0.80185863     0.74200
O1199       O  0.89652525  0.09096566  0.98900161    -0.39200
O1200       O  0.84111627  0.05614852  0.98700287    -0.39200
O1201       O  0.91438131  0.07637866  0.78428326    -0.39900
O1202       O  0.87602567  0.02318269  0.78424135    -0.39900
C1203       C  0.01749178  0.02341750  0.06307317    -0.12200
C1204       C  0.01759324  0.03056125  0.02117256     0.04800
C1205       C  0.04463877  0.06042051  0.00704363    -0.07500
C1206       C  0.06925510  0.08274268  0.03369942    -0.08300
C1207       C  0.06865587  0.07691947  0.07593289    -0.02800
C1208       C  0.04220204  0.04608208  0.09011848     0.04000
N1209       N  0.03953245  0.03743006  0.13212391     0.66500
H1210       H  0.99725189  0.00096249  0.07512531     0.15400
H1211       H  0.08758111  0.10421432  0.02019086     0.15100
N1212       N  0.04976492  0.06785686  0.96502008     0.74200
O1213       O  0.01271207  0.05444260  0.15281633    -0.39200
O1214       O  0.05752478  0.00698753  0.14627723    -0.39200
O1215       O  0.02758330  0.09367890  0.94791671    -0.39900
O1216       O  0.08365475  0.06019228  0.94976314    -0.39900
loop_ 
_geom_bond_atom_site_label_1 
_geom_bond_atom_site_label_2 
_geom_bond_distance 
_geom_bond_site_symmetry_2 
_ccdc_geom_bond_type 
C1            C2   1.555       .  S
C1            C7   1.557       .  S
C1            C5   1.570       .  S
C1         C1207   1.586       .  S
C2            H9   1.085       .  S
C2            C3   1.375       .  D
C3            C4   1.526       .  S
C3          C355   1.481       .  S
C4            C8   1.535       .  S
C4            C6   1.525       .  S
C4           H10   1.112       .  S
C5           H11   1.059       .  S
C5            C6   1.368       .  D
C6          C367   1.483       .  S
C7           H12   1.084       .  S
C7            C8   1.377       .  D
C8          C361   1.492       .  S
C13          C14   1.564       .  S
C13          C19   1.560       .  S
C13          C17   1.560       .  S
C13        C1190   1.584       .  S
C14          H21   1.080       .  S
C14          C15   1.373       .  D
C15          C16   1.526       .  S
C15         C277   1.479       .  S
C16          C20   1.525       .  S
C16          C18   1.526       .  S
C16          H22   1.113       .  S
C17          H23   1.085       .  S
C17          C18   1.374       .  D
C18         C205   1.488       .  S
C19          H24   1.085       .  S
C19          C20   1.375       .  D
C20         C343   1.485       .  S
C25          C26   1.552       .  S
C25          C31   1.571       .  S
C25          C29   1.553       .  S
C25        C1176   1.585       .  S
C26          H33   1.085       .  S
C26          C27   1.372       .  D
C27          C28   1.537       .  S
C27         C251   1.496       .  S
C28          C32   1.538       .  S
C28          C30   1.528       .  S
C28          H34   1.112       .  S
C29          H35   1.085       .  S
C29          C30   1.372       .  D
C30         C113   1.479       .  S
C31          H36   1.081       .  S
C31          C32   1.377       .  D
C32         C297   1.500       .  S
C37          C38   1.572       .  S
C37          C43   1.557       .  S
C37          C41   1.553       .  S
C37        C1162   1.586       .  S
C38          H45   1.080       .  S
C38          C39   1.374       .  D
C39          C40   1.530       .  S
C39         C323   1.493       .  S
C40          C44   1.526       .  S
C40          C42   1.532       .  S
C40          H46   1.112       .  S
C41          H47   1.085       .  S
C41          C42   1.374       .  D
C42         C159   1.488       .  S
C43          H48   1.085       .  S
C43          C44   1.374       .  D
C44         C231   1.481       .  S
C49          C50   1.545       .  S
C49          C55   1.544   1_545  S
C49          C53   1.552   1_545  S
C49        C1193   1.591       .  S
C50          H57   1.081       .  S
C50          C51   1.376       .  D
C51          C52   1.570   1_545  S
C51        C1204   1.534   1_656  S
C52          C56   1.580       .  S
C52          C54   1.575       .  S
C52          H58   1.110   1_656  S
C53          H59   1.068       .  S
C53          C54   1.371       .  D
C54        C1165   1.539   1_655  S
C55          H60   1.085       .  S
C55          C56   1.379       .  D
C56        C1179   1.539   1_556  S
C61         C402   1.489       .  S
C61          N62   1.367       .  A
C61          N66   1.371       .  A
N62          C63   1.363       .  A
C63          N64   1.343       .  A
C63        C1134   1.465       .  S
N64          C65   1.342       .  A
C65          N66   1.368       .  A
C65        C1148   1.471       .  S
C67         C399   1.476       .  S
C67          N68   1.368       .  A
C67          N72   1.366       .  A
N68          C69   1.364       .  A
C69          N70   1.341       .  A
C69        C1120   1.470       .  S
N70          C71   1.339       .  A
C71          N72   1.362       .  A
C71        C1106   1.464       .  S
C73         C411   1.482       .  S
C73          N74   1.369       .  A
C73          N78   1.372       .  A
N74          C75   1.361       .  A
C75          N76   1.338       .  A
C75        C1092   1.468       .  S
N76          C77   1.339       .  A
C77          N78   1.365       .  A
C77        C1078   1.470       .  S
C79         C390   1.487       .  S
C79          N80   1.374       .  A
C79          N84   1.369       .  A
N80          C81   1.368       .  A
C81          N82   1.340       .  A
C81        C1067   1.480       .  S
N82          C83   1.339       .  A
C83          N84   1.362       .  A
C83        C1053   1.467       .  S
O85         Ni93   1.961   1_554  S
O85          C95   1.293       .  A
O86         Ni93   1.963       .  S
O86          C96   1.293       .  A
O87         Ni93   1.868       .  S
O87          C97   1.267       .  A
O88         Ni93   1.861   1_554  S
O88          C98   1.266       .  A
O89         Ni94   1.963   1_554  S
O89          C98   1.294       .  A
O90         Ni94   1.965       .  S
O90          C97   1.294       .  A
O91         Ni94   1.861       .  S
O91          C96   1.267       .  A
O92         Ni94   1.871   1_554  S
O92          C95   1.266       .  A
Ni93        Ni94   2.388       .  S
C95        C1081   1.471       .  S
C96        C1123   1.477       .  S
C97        C1036   1.477       .  S
C98        C1022   1.481       .  S
O99        Ni107   1.956       .  S
O99         C109   1.292       .  A
O100       Ni107   1.952   1_554  S
O100        C110   1.291       .  A
O101       Ni107   1.872       .  S
O101        C111   1.267       .  A
O102       Ni107   1.872   1_554  S
O102        C112   1.269       .  A
O103       Ni108   1.953   1_554  S
O103        C112   1.291       .  A
O104       Ni108   1.952       .  S
O104        C111   1.290       .  A
O105       Ni108   1.875   1_554  S
O105        C110   1.268       .  A
O106       Ni108   1.866       .  S
O106        C109   1.269       .  A
Ni107      Ni108   2.390       .  S
C109       C1008   1.482       .  S
C110        C994   1.467       .  S
C111        C980   1.462       .  S
C112       C1050   1.475       .  S
C113        N114   1.368       .  A
C113        N118   1.371       .  A
N114        C115   1.361       .  A
C115        N116   1.338       .  A
C115        C997   1.461       .  S
N116        C117   1.339       .  A
C117        N118   1.365       .  A
C117       C1025   1.480       .  S
C119        C404   1.482       .  S
C119        N120   1.369       .  A
C119        N124   1.369       .  A
N120        C121   1.363       .  A
C121        N122   1.339       .  A
C121        C983   1.461       .  S
N122        C123   1.340       .  A
C123        N124   1.364       .  A
C123        C966   1.469       .  S
C125        C414   1.484       .  S
C125        N126   1.374       .  A
C125        N130   1.369       .  A
N126        C127   1.366       .  A
C127        N128   1.338       .  A
C127        C952   1.469       .  S
N128        C129   1.339       .  A
C129        N130   1.361       .  A
C129        C941   1.466       .  S
O131       Ni139   1.948   1_455  S
O131        C141   1.291       .  A
O132       Ni139   1.950       .  S
O132        C142   1.289       .  A
O133       Ni139   1.875   1_455  S
O133        C143   1.270       .  A
O134       Ni139   1.885       .  S
O134        C144   1.270       .  A
O135       Ni140   1.943       .  S
O135        C144   1.289       .  A
O136       Ni140   1.942   1_455  S
O136        C143   1.289       .  A
O137       Ni140   1.874       .  S
O137        C142   1.270       .  A
O138       Ni140   1.872   1_455  S
O138        C141   1.269       .  A
Ni139      Ni140   2.386       .  S
C141        C938   1.471       .  S
C142       C1137   1.467       .  S
C143        C924   1.468       .  S
C144        C910   1.469       .  S
O145       Ni153   1.964   1_455  S
O145        C155   1.293       .  A
O146       Ni153   1.967       .  S
O146        C156   1.294       .  A
O147       Ni153   1.876       .  S
O147        C157   1.268       .  A
O148       Ni153   1.882   1_455  S
O148        C158   1.269       .  A
O149       Ni154   1.962   1_455  S
O149        C158   1.294       .  A
O150       Ni154   1.961       .  S
O150        C157   1.292       .  A
O151       Ni154   1.860       .  S
O151        C156   1.265       .  A
O152       Ni154   1.862   1_455  S
O152        C155   1.267       .  A
Ni153      Ni154   2.383       .  S
C155        C868   1.490       .  S
C156        C969   1.478       .  S
C157        C882   1.474       .  S
C158        C896   1.495       .  S
C159        N160   1.369       .  A
C159        N164   1.376       .  A
N160        C161   1.360       .  A
C161        N162   1.339       .  A
C161        C927   1.464       .  S
N162        C163   1.340       .  A
C163        N164   1.369       .  A
C163        C899   1.481       .  S
C165        C380   1.488       .  S
C165        N166   1.374       .  A
C165        N170   1.371       .  A
N166        C167   1.366       .  A
C167        N168   1.336       .  A
C167        C854   1.466       .  S
N168        C169   1.338       .  A
C169        N170   1.362       .  A
C169        C871   1.471       .  S
C171        C387   1.473       .  S
C171        N172   1.371       .  A
C171        N176   1.365       .  A
N172        C173   1.362       .  A
C173        N174   1.340       .  A
C173        C826   1.468       .  S
N174        C175   1.339       .  A
C175        N176   1.358       .  A
C175        C843   1.456       .  S
O177       Ni185   1.962   1_545  S
O177        C187   1.294       .  A
O178       Ni185   1.956       .  S
O178        C188   1.293       .  A
O179       Ni185   1.872       .  S
O179        C189   1.267       .  A
O180       Ni185   1.866   1_545  S
O180        C190   1.268       .  A
O181       Ni186   1.966   1_545  S
O181        C190   1.294       .  A
O182       Ni186   1.966       .  S
O182        C189   1.293       .  A
O183       Ni186   1.868       .  S
O183        C188   1.267       .  A
O184       Ni186   1.877   1_545  S
O184        C187   1.269       .  A
Ni185      Ni186   2.384       .  S
C187        C812   1.488       .  S
C188        C801   1.481       .  S
C189       C1151   1.474       .  S
C190        C829   1.489       .  S
O191       Ni199   1.956       .  S
O191        C201   1.293   1_565  A
O192       Ni199   1.958       .  S
O192        C202   1.292       .  A
O193       Ni199   1.888   1_545  S
O193        C203   1.271       .  A
O194       Ni199   1.864       .  S
O194        C204   1.267       .  A
O195       Ni200   1.953       .  S
O195        C204   1.291       .  A
O196       Ni200   1.951   1_545  S
O196        C203   1.291       .  A
O197       Ni200   1.874       .  S
O197        C202   1.270       .  A
O198       Ni200   1.870   1_545  S
O198        C201   1.268       .  A
Ni199      Ni200   2.385       .  S
C201        C773   1.480       .  S
C202        C787   1.491       .  S
C203        C756   1.478       .  S
C204       C1109   1.468       .  S
C205        N206   1.374       .  A
C205        N210   1.374       .  A
N206        C207   1.366       .  A
C207        N208   1.337       .  A
C207        C770   1.476       .  S
N208        C209   1.338       .  A
C209        N210   1.364       .  A
C209        C815   1.476       .  S
C211        C375   1.490       .  S
C211        N212   1.373       .  A
C211        N216   1.373       .  A
N212        C213   1.366       .  A
C213        N214   1.340       .  A
C213        C759   1.477       .  S
N214        C215   1.339       .  A
C215        N216   1.366       .  A
C215        C742   1.482       .  S
O217       Ni225   1.964   1_554  S
O217        C227   1.294       .  A
O218       Ni225   1.960       .  S
O218        C228   1.292       .  A
O219       Ni225   1.883   1_554  S
O219        C229   1.270       .  A
O220       Ni225   1.861       .  S
O220        C230   1.267       .  A
O221       Ni226   1.955       .  S
O221        C230   1.292       .  A
O222       Ni226   1.954   1_554  S
O222        C229   1.292       .  A
O223       Ni226   1.879       .  S
O223        C228   1.268       .  A
O224       Ni226   1.871   1_554  S
O224        C227   1.268       .  A
Ni225      Ni226   2.386       .  S
C227        C700   1.484       .  S
C228        C857   1.475       .  S
C229        C714   1.478       .  S
C230        C728   1.481       .  S
C231        N232   1.373       .  A
C231        N236   1.370       .  A
N232        C233   1.364       .  A
C233        N234   1.337       .  A
C233       C1039   1.468       .  S
N234        C235   1.337       .  A
C235        N236   1.363       .  A
C235        C731   1.478       .  S
O237       Ni245   1.958   1_455  S
O237        C247   1.292       .  A
O238       Ni245   1.959       .  S
O238        C248   1.292       .  A
O239       Ni245   1.875       .  S
O239        C249   1.269       .  A
O240       Ni245   1.873   1_455  S
O240        C250   1.269       .  A
O241       Ni246   1.969   1_455  S
O241        C250   1.295       .  A
O242       Ni246   1.971       .  S
O242        C249   1.296       .  A
O243       Ni246   1.879       .  S
O243        C248   1.269       .  A
O244       Ni246   1.872   1_455  S
O244        C247   1.268       .  A
Ni245      Ni246   2.382       .  S
C247        C658   1.473       .  S
C248       C1064   1.481       .  S
C249        C686   1.500       .  S
C250        C672   1.495       .  S
C251        N252   1.369       .  A
C251        N256   1.377       .  A
N252        C253   1.362       .  A
C253        N254   1.340       .  A
C253        C913   1.464       .  S
N254        C255   1.340       .  A
C255        N256   1.370       .  A
C255        C689   1.488       .  S
C257        C416   1.490       .  S
C257        N258   1.374       .  A
C257        N262   1.369       .  A
N258        C259   1.368       .  A
C259        N260   1.341       .  A
C259        C703   1.483       .  S
N260        C261   1.340       .  A
C261        N262   1.364       .  A
C261        C661   1.467       .  S
O263       Ni271   1.960   1_554  S
O263        C273   1.293       .  A
O264       Ni271   1.964       .  S
O264        C274   1.294       .  A
O265       Ni271   1.869       .  S
O265        C275   1.266       .  A
O266       Ni271   1.864   1_554  S
O266        C276   1.267       .  A
O267       Ni272   1.958   1_554  S
O267        C276   1.292       .  A
O268       Ni272   1.961       .  S
O268        C275   1.294       .  A
O269       Ni272   1.867       .  S
O269        C274   1.268       .  A
O270       Ni272   1.869   1_554  S
O270        C273   1.267       .  A
Ni271      Ni272   2.386       .  S
C273        C616   1.475       .  S
C274        C745   1.484       .  S
C275        C644   1.477       .  S
C276        C630   1.472       .  S
C277        N278   1.367       .  A
C277        N282   1.368       .  A
N278        C279   1.362       .  A
C279        N280   1.343       .  A
C279       C1011   1.481       .  S
N280        C281   1.343       .  A
C281        N282   1.364       .  A
C281        C647   1.470       .  S
O283       Ni291   1.963   1_545  S
O283        C293   1.293       .  A
O284       Ni291   1.968       .  S
O284        C294   1.295       .  A
O285       Ni291   1.863   1_545  S
O285        C295   1.264       .  A
O286       Ni291   1.858       .  S
O286        C296   1.266       .  A
O287       Ni292   1.967       .  S
O287        C296   1.294       .  A
O288       Ni292   1.961   1_545  S
O288        C295   1.294       .  A
O289       Ni292   1.883       .  S
O289        C294   1.270       .  A
O290       Ni292   1.876   1_545  S
O290        C293   1.267       .  A
Ni291      Ni292   2.387       .  S
C293        C588   1.472       .  S
C294        C602   1.489       .  S
C295        C574   1.477       .  S
C296       C1095   1.477       .  S
C297        N298   1.367       .  A
C297        N302   1.380       .  A
N298        C299   1.362       .  A
C299        N300   1.341       .  A
C299        C798   1.474       .  S
N300        C301   1.343       .  A
C301        N302   1.375       .  A
C301        C605   1.493       .  S
C303        C392   1.478       .  S
C303        N304   1.370       .  A
C303        N308   1.371       .  A
N304        C305   1.363       .  A
C305        N306   1.341       .  A
C305        C619   1.470       .  S
N306        C307   1.338       .  A
C307        N308   1.362       .  A
C307        C577   1.471       .  S
O309       Ni317   1.972   1_545  S
O309        C319   1.295       .  A
O310       Ni317   1.968       .  S
O310        C320   1.295       .  A
O311       Ni317   1.880       .  S
O311        C321   1.268       .  A
O312       Ni317   1.863   1_545  S
O312        C322   1.265       .  A
O313       Ni318   1.964   1_545  S
O313        C322   1.295       .  A
O314       Ni318   1.962       .  S
O314        C321   1.293       .  A
O315       Ni318   1.869       .  S
O315        C320   1.267       .  A
O316       Ni318   1.870   1_545  S
O316        C319   1.268       .  A
Ni317      Ni318   2.384       .  S
C319        C546   1.489       .  S
C320        C560   1.481       .  S
C321        C955   1.476       .  S
C322        C532   1.486       .  S
C323        N324   1.372       .  A
C323        N328   1.377       .  A
N324        C325   1.361       .  A
C325        N326   1.337       .  A
C325        C784   1.469       .  S
N326        C327   1.336       .  A
C327        N328   1.369       .  A
C327        C563   1.474       .  S
O329       Ni337   1.943   1_455  S
O329        C339   1.288       .  A
O330       Ni337   1.948       .  S
O330        C340   1.290       .  A
O331       Ni337   1.870       .  S
O331        C341   1.268       .  A
O332       Ni337   1.864       .  S
O332        C342   1.267       .  A
O333       Ni338   1.954       .  S
O333        C342   1.292       .  A
O334       Ni338   1.947       .  S
O334        C341   1.289       .  A
O335       Ni338   1.870       .  S
O335        C340   1.269       .  A
O336       Ni338   1.888   1_455  S
O336        C339   1.271       .  A
Ni337      Ni338   2.392       .  S
C339        C490   1.467       .  S
C340        C840   1.466       .  S
C341        C507   1.464   1_655  S
C342        C518   1.473       .  S
C343        N344   1.367       .  A
C343        N348   1.369       .  A
N344        C345   1.364       .  A
C345        N346   1.342       .  A
C345        C521   1.472       .  S
N346        C347   1.343       .  A
C347        N348   1.366       .  A
C347        C885   1.468       .  S
C349        C378   1.486       .  S
C349        N350   1.369       .  A
C349        N354   1.369       .  A
N350        C351   1.364       .  A
C351        N352   1.341       .  A
C351        C535   1.478       .  S
N352        C353   1.343       .  A
C353        N354   1.365       .  A
C353        C493   1.465       .  S
C355        N356   1.369       .  A
C355        N360   1.375       .  A
N356        C357   1.360       .  A
C357        N358   1.336       .  A
C357        C504   1.456       .  S
N358        C359   1.336       .  A
C359        N360   1.364       .  A
C359        C675   1.476       .  S
C361        N362   1.376       .  A
C361        N366   1.370       .  A
N362        C363   1.369       .  A
C363        N364   1.338       .  A
C363        C549   1.478       .  S
N364        C365   1.337       .  A
C365        N366   1.362       .  A
C365        C591   1.461       .  S
C367        N368   1.369       .  A
C367        N372   1.374       .  A
N368        C369   1.361       .  A
C369        N370   1.338       .  A
C369        C633   1.466       .  S
N370        C371   1.339       .  A
C371        N372   1.365       .  A
C371        C717   1.473       .  S
C373        C374   1.563       .  S
C373        C379   1.570       .  S
C373        C377   1.560       .  S
C373        C476   1.594       .  S
C374        H381   1.085       .  S
C374        C375   1.378       .  D
C375        C376   1.527       .  S
C376        C380   1.525       .  S
C376        C378   1.525       .  S
C376        H382   1.113       .  S
C377        H383   1.085       .  S
C377        C378   1.376       .  D
C379        H384   1.076       .  S
C379        C380   1.371       .  D
C385        C386   1.550       .  S
C385        C391   1.557       .  S
C385        C389   1.571       .  S
C385        C465   1.577       .  S
C386        H393   1.085       .  S
C386        C387   1.370       .  D
C387        C388   1.523       .  S
C388        C392   1.525       .  S
C388        C390   1.527       .  S
C388        H394   1.113       .  S
C389        H395   1.078       .  S
C389        C390   1.369       .  D
C391        H396   1.085       .  S
C391        C392   1.374       .  D
C397        C398   1.557       .  S
C397        C403   1.557       .  S
C397        C401   1.572       .  S
C397        C448   1.584       .  S
C398        H405   1.085       .  S
C398        C399   1.374       .  D
C399        C400   1.522       .  S
C400        C404   1.524       .  S
C400        C402   1.523       .  S
C400        H406   1.113       .  S
C401        H407   1.080       .  S
C401        C402   1.375       .  D
C403        H408   1.085       .  S
C403        C404   1.372       .  D
C409        C410   1.570       .  S
C409        C415   1.561       .  S
C409        C413   1.552       .  S
C409        C434   1.582       .  S
C410        H417   1.074       .  S
C410        C411   1.369       .  D
C411        C412   1.524       .  S
C412        C416   1.531       .  S
C412        C414   1.530       .  S
C412        H418   1.112       .  S
C413        H419   1.085       .  S
C413        C414   1.370       .  D
C415        H420   1.084       .  S
C415        C416   1.379       .  D
C421        C422   1.551       .  S
C421        C427   1.545       .  S
C421        C425   1.555       .  S
C421        C451   1.597       .  S
C422        H429   1.085       .  S
C422        C423   1.380       .  D
C423        C424   1.572       .  S
C423        C437   1.536       .  S
C424        C428   1.574       .  S
C424        C426   1.572       .  S
C424        H430   1.110       .  S
C425        H431   1.077       .  S
C425        C426   1.374       .  D
C426        C479   1.541       .  S
C427        H432   1.084       .  S
C427        C428   1.378       .  D
C428        C462   1.536       .  S
C433        C434   1.411       .  A
C433        C438   1.411       .  A
C433        H440   1.061       .  S
C434        C435   1.429       .  A
C435        C436   1.432       .  A
C435        N442   1.428       .  S
C436        C437   1.413       .  A
C436        H441   1.081       .  S
C437        C438   1.416       .  A
C438        N439   1.423       .  S
N439        O443   1.260       .  A
N439        O444   1.260       .  A
N442        O446   1.262       .  A
N442        O445   1.262       .  A
C447        C448   1.412       .  A
C447        C452   1.421       .  A
C447        H454   1.075       .  S
C448        C449   1.423       .  A
C449        C450   1.425       .  A
C449        N456   1.430       .  S
C450        C451   1.423       .  A
C450        H455   1.071       .  S
C451        C452   1.426       .  A
C452        N453   1.424       .  S
N453        O457   1.260       .  A
N453        O458   1.259       .  A
N456        O460   1.262       .  A
N456        O459   1.262       .  A
C461        C462   1.412       .  A
C461        C466   1.430       .  A
C461        H468   1.082       .  S
C462        C463   1.420       .  A
C463        C464   1.408       .  A
C463        N470   1.424       .  S
C464        C465   1.408       .  A
C464        H469   1.069       .  S
C465        C466   1.429       .  A
C466        N467   1.429       .  S
N467        O471   1.262       .  A
N467        O472   1.262       .  A
N470        O474   1.260       .  A
N470        O473   1.261       .  A
C475        C476   1.420       .  A
C475        C480   1.419       .  A
C475        H482   1.068       .  S
C476        C477   1.431       .  A
C477        C478   1.433       .  A
C477        N484   1.429       .  S
C478        C479   1.412       .  A
C478        H483   1.082       .  S
C479        C480   1.417       .  A
C480        N481   1.430       .  S
N481        O485   1.262       .  A
N481        O486   1.262       .  A
N484        O488   1.262       .  A
N484        O487   1.262       .  A
C489        C490   1.399       .  A
C489        C494   1.399       .  A
C489        H496   1.084       .  S
C490        C491   1.409       .  A
C491        C492   1.403       .  A
C491        N498   1.430       .  S
C492        C493   1.404       .  A
C492        H497   1.084       .  S
C493        C494   1.410       .  A
C494        N495   1.429       .  S
N495        O499   1.261       .  A
N495        O500   1.262       .  A
N498        O502   1.262       .  A
N498        O501   1.262       .  A
C503        C504   1.408   1_655  A
C503        C508   1.399       .  A
C503        H510   1.085       .  S
C504        C505   1.405       .  A
C505        C506   1.398       .  A
C505        N512   1.429       .  S
C506        C507   1.405       .  A
C506        H511   1.084       .  S
C507        C508   1.405   1_455  A
C508        N509   1.429       .  S
N509        O513   1.262       .  A
N509        O514   1.262       .  A
N512        O516   1.261       .  A
N512        O515   1.262       .  A
C517        C518   1.398       .  A
C517        C522   1.401       .  A
C517        H524   1.084       .  S
C518        C519   1.417       .  A
C519        C520   1.397       .  A
C519        N526   1.430       .  S
C520        C521   1.398       .  A
C520        H525   1.084       .  S
C521        C522   1.416       .  A
C522        N523   1.430       .  S
N523        O527   1.262       .  A
N523        O528   1.262       .  A
N526        O530   1.262       .  A
N526        O529   1.262       .  A
C531        C532   1.398       .  A
C531        C536   1.403       .  A
C531        H538   1.084       .  S
C532        C533   1.426       .  A
C533        C534   1.396       .  A
C533        N540   1.430       .  S
C534        C535   1.393       .  A
C534        H539   1.084       .  S
C535        C536   1.419       .  A
C536        N537   1.430       .  S
N537        O541   1.262       .  A
N537        O542   1.262       .  A
N540        O544   1.262       .  A
N540        O543   1.261       .  A
C545        C546   1.414       .  A
C545        C550   1.402       .  A
C545        H552   1.084       .  S
C546        C547   1.405       .  A
C547        C548   1.406       .  A
C547        N554   1.428       .  S
C548        C549   1.414       .  A
C548        H553   1.084       .  S
C549        C550   1.402       .  A
C550        N551   1.428       .  S
N551        O555   1.262   1_545  A
N551        O556   1.261       .  A
N554        O558   1.261       .  A
N554        O557   1.262       .  A
C559        C560   1.412       .  A
C559        C564   1.404       .  A
C559        H566   1.084       .  S
C560        C561   1.405       .  A
C561        C562   1.404       .  A
C561        N568   1.429       .  S
C562        C563   1.412       .  A
C562        H567   1.085       .  S
C563        C564   1.404       .  A
C564        N565   1.427       .  S
N565        O569   1.261       .  A
N565        O570   1.262       .  A
N568        O572   1.262       .  A
N568        O571   1.262   1_565  A
C573        C574   1.395       .  A
C573        C578   1.400       .  A
C573        H580   1.084       .  S
C574        C575   1.425       .  A
C575        C576   1.400       .  A
C575        N582   1.432       .  S
C576        C577   1.394       .  A
C576        H581   1.084       .  S
C577        C578   1.417       .  A
C578        N579   1.431       .  S
N579        O583   1.262       .  A
N579        O584   1.262       .  A
N582        O586   1.261       .  A
N582        O585   1.262       .  A
C587        C588   1.404       .  A
C587        C592   1.400       .  A
C587        H594   1.082   1_545  S
C588        C589   1.409       .  A
C589        C590   1.404       .  A
C589        N596   1.430       .  S
C590        C591   1.405       .  A
C590        H595   1.084       .  S
C591        C592   1.406       .  A
C592        N593   1.429   1_545  S
N593        O597   1.261       .  A
N593        O598   1.262       .  A
N596        O600   1.262       .  A
N596        O599   1.262       .  A
C601        C602   1.413       .  A
C601        C606   1.409       .  A
C601        H608   1.084       .  S
C602        C603   1.404       .  A
C603        C604   1.406       .  A
C603        N610   1.429       .  S
C604        C605   1.415       .  A
C604        H609   1.084       .  S
C605        C606   1.407       .  A
C606        N607   1.428       .  S
N607        O611   1.262       .  A
N607        O612   1.262       .  A
N610        O614   1.262       .  A
N610        O613   1.262       .  A
C615        C616   1.412       .  A
C615        C620   1.401       .  A
C615        H622   1.083       .  S
C616        C617   1.406       .  A
C617        C618   1.401       .  A
C617        N624   1.432       .  S
C618        C619   1.408       .  A
C618        H623   1.084       .  S
C619        C620   1.402       .  A
C620        N621   1.430       .  S
N621        O625   1.262       .  A
N621        O626   1.262       .  A
N624        O628   1.262       .  A
N624        O627   1.262       .  A
C629        C630   1.410       .  A
C629        C634   1.397       .  A
C629        H636   1.084   1_554  S
C630        C631   1.402       .  A
C631        C632   1.399       .  A
C631        N638   1.428       .  S
C632        C633   1.411       .  A
C632        H637   1.084       .  S
C633        C634   1.403       .  A
C634        N635   1.429       .  S
N635        O639   1.262   1_554  A
N635        O640   1.262       .  A
N638        O642   1.261       .  A
N638        O641   1.262       .  A
C643        C644   1.398       .  A
C643        C648   1.401       .  A
C643        H650   1.084       .  S
C644        C645   1.422       .  A
C645        C646   1.400       .  A
C645        N652   1.431       .  S
C646        C647   1.396       .  A
C646        H651   1.084       .  S
C647        C648   1.414       .  A
C648        N649   1.430       .  S
N649        O653   1.262       .  A
N649        O654   1.262       .  A
N652        O656   1.261       .  A
N652        O655   1.262       .  A
C657        C658   1.397       .  A
C657        C662   1.403       .  A
C657        H664   1.084       .  S
C658        C659   1.415       .  A
C659        C660   1.398       .  A
C659        N666   1.428       .  S
C660        C661   1.397       .  A
C660        H665   1.085       .  S
C661        C662   1.417       .  A
C662        N663   1.429       .  S
N663        O667   1.262       .  A
N663        O668   1.262       .  A
N666        O670   1.262       .  A
N666        O669   1.262       .  A
C671        C672   1.418       .  A
C671        C676   1.401       .  A
C671        H678   1.083       .  S
C672        C673   1.409       .  A
C673        C674   1.405       .  A
C673        N680   1.429       .  S
C674        C675   1.413       .  A
C674        H679   1.085       .  S
C675        C676   1.400       .  A
C676        N677   1.429       .  S
N677        O681   1.262       .  A
N677        O682   1.261       .  A
N680        O684   1.262       .  A
N680        O683   1.262       .  A
C685        C686   1.421       .  A
C685        C690   1.404       .  A
C685        H692   1.083       .  S
C686        C687   1.406       .  A
C687        C688   1.405       .  A
C687        N694   1.428       .  S
C688        C689   1.416       .  A
C688        H693   1.084       .  S
C689        C690   1.400       .  A
C690        N691   1.429       .  S
N691        O695   1.262       .  A
N691        O696   1.261       .  A
N694        O698   1.262       .  A
N694        O697   1.262       .  A
C699        C700   1.413       .  A
C699        C704   1.402       .  A
C699        H706   1.084       .  S
C700        C701   1.404       .  A
C701        C702   1.402       .  A
C701        N708   1.429       .  S
C702        C703   1.414       .  A
C702        H707   1.084       .  S
C703        C704   1.405       .  A
C704        N705   1.428       .  S
N705        O709   1.262       .  A
N705        O710   1.262       .  A
N708        O712   1.262       .  A
N708        O711   1.262       .  A
C713        C714   1.409       .  A
C713        C718   1.404       .  A
C713        H720   1.084   1_554  S
C714        C715   1.404       .  A
C715        C716   1.400       .  A
C715        N722   1.428       .  S
C716        C717   1.410       .  A
C716        H721   1.085       .  S
C717        C718   1.407       .  A
C718        N719   1.429       .  S
N719        O723   1.262       .  A
N719        O724   1.262   1_554  A
N722        O726   1.262       .  A
N722        O725   1.262       .  A
C727        C728   1.417       .  A
C727        C732   1.397       .  A
C727        H734   1.084       .  S
C728        C729   1.405       .  A
C729        C730   1.398       .  A
C729        N736   1.432       .  S
C730        C731   1.415       .  A
C730        H735   1.084       .  S
C731        C732   1.400       .  A
C732        N733   1.429       .  S
N733        O737   1.262       .  A
N733        O738   1.262       .  A
N736        O740   1.262       .  A
N736        O739   1.262       .  A
C741        C742   1.416       .  A
C741        C746   1.402       .  A
C741        H748   1.084       .  S
C742        C743   1.402       .  A
C743        C744   1.399       .  A
C743        N750   1.428       .  S
C744        C745   1.415       .  A
C744        H749   1.084       .  S
C745        C746   1.402       .  A
C746        N747   1.429       .  S
N747        O751   1.262       .  A
N747        O752   1.262       .  A
N750        O754   1.262       .  A
N750        O753   1.262       .  A
C755        C756   1.410       .  A
C755        C760   1.404       .  A
C755        H762   1.084       .  S
C756        C757   1.402       .  A
C757        C758   1.400       .  A
C757        N764   1.429       .  S
C758        C759   1.412       .  A
C758        H763   1.084       .  S
C759        C760   1.405       .  A
C760        N761   1.428       .  S
N761        O765   1.262       .  A
N761        O766   1.262       .  A
N764        O768   1.262       .  A
N764        O767   1.262       .  A
C769        C770   1.412       .  A
C769        C774   1.397       .  A
C769        H776   1.085       .  S
C770        C771   1.403       .  A
C771        C772   1.404       .  A
C771        N778   1.429       .  S
C772        C773   1.415       .  A
C772        H777   1.084       .  S
C773        C774   1.405       .  A
C774        N775   1.429   1_545  S
N775        O779   1.262       .  A
N775        O780   1.262       .  A
N778        O782   1.262       .  A
N778        O781   1.262       .  A
C783        C784   1.411       .  A
C783        C788   1.407       .  A
C783        H790   1.085       .  S
C784        C785   1.401       .  A
C785        C786   1.398       .  A
C785        N792   1.429       .  S
C786        C787   1.415       .  A
C786        H791   1.084       .  S
C787        C788   1.413       .  A
C788        N789   1.433       .  S
N789        O793   1.262       .  A
N789        O794   1.262       .  A
N792        O796   1.262       .  A
N792        O795   1.261       .  A
C797        C798   1.395       .  A
C797        C802   1.397       .  A
C797        H804   1.084       .  S
C798        C799   1.417       .  A
C799        C800   1.400       .  A
C799        N806   1.430       .  S
C800        C801   1.396       .  A
C800        H805   1.082       .  S
C801        C802   1.423       .  A
C802        N803   1.429       .  S
N803        O807   1.262       .  A
N803        O808   1.261       .  A
N806        O810   1.262       .  A
N806        O809   1.262       .  A
C811        C812   1.415       .  A
C811        C816   1.402       .  A
C811        H818   1.084       .  S
C812        C813   1.405       .  A
C813        C814   1.402       .  A
C813        N820   1.428       .  S
C814        C815   1.413       .  A
C814        H819   1.085       .  S
C815        C816   1.402       .  A
C816        N817   1.429       .  S
N817        O821   1.262       .  A
N817        O822   1.262       .  A
N820        O824   1.262       .  A
N820        O823   1.262       .  A
C825        C826   1.411       .  A
C825        C830   1.403       .  A
C825        H832   1.084       .  S
C826        C827   1.401       .  A
C827        C828   1.397       .  A
C827        N834   1.430       .  S
C828        C829   1.416       .  A
C828        H833   1.083       .  S
C829        C830   1.406       .  A
C830        N831   1.427       .  S
N831        O835   1.261       .  A
N831        O836   1.262       .  A
N834        O838   1.262       .  A
N834        O837   1.262       .  A
C839        C840   1.408       .  A
C839        C844   1.397       .  A
C839        H846   1.084       .  S
C840        C841   1.403       .  A
C841        C842   1.397       .  A
C841        N848   1.429       .  S
C842        C843   1.406       .  A
C842        H847   1.085       .  S
C843        C844   1.404       .  A
C844        N845   1.432       .  S
N845        O849   1.262       .  A
N845        O850   1.262       .  A
N848        O852   1.262       .  A
N848        O851   1.262       .  A
C853        C854   1.407       .  A
C853        C858   1.403       .  A
C853        H860   1.084       .  S
C854        C855   1.410       .  A
C855        C856   1.404       .  A
C855        N862   1.431       .  S
C856        C857   1.405       .  A
C856        H861   1.084       .  S
C857        C858   1.407       .  A
C858        N859   1.429       .  S
N859        O863   1.261       .  A
N859        O864   1.262       .  A
N862        O866   1.262       .  A
N862        O865   1.262       .  A
C867        C868   1.418       .  A
C867        C872   1.396       .  A
C867        H874   1.083       .  S
C868        C869   1.410       .  A
C869        C870   1.405       .  A
C869        N876   1.432       .  S
C870        C871   1.411       .  A
C870        H875   1.085       .  S
C871        C872   1.399       .  A
C872        N873   1.430       .  S
N873        O877   1.262       .  A
N873        O878   1.262       .  A
N876        O880   1.262       .  A
N876        O879   1.262       .  A
C881        C882   1.401       .  A
C881        C886   1.406       .  A
C881        H888   1.080       .  S
C882        C883   1.411       .  A
C883        C884   1.400       .  A
C883        N890   1.428       .  S
C884        C885   1.399       .  A
C884        H889   1.084       .  S
C885        C886   1.413       .  A
C886        N887   1.430       .  S
N887        O891   1.262       .  A
N887        O892   1.262       .  A
N890        O894   1.262       .  A
N890        O893   1.261       .  A
C895        C896   1.398       .  A
C895        C900   1.402       .  A
C895        H902   1.084       .  S
C896        C897   1.428       .  A
C897        C898   1.404       .  A
C897        N904   1.429       .  S
C898        C899   1.395       .  A
C898        H903   1.084       .  S
C899        C900   1.420       .  A
C900        N901   1.431       .  S
N901        O905   1.262       .  A
N901        O906   1.262       .  A
N904        O908   1.262   1_455  A
N904        O907   1.262       .  A
C909        C910   1.399       .  A
C909        C914   1.398       .  A
C909        H916   1.085   1_655  S
C910        C911   1.414       .  A
C911        C912   1.401       .  A
C911        N918   1.430       .  S
C912        C913   1.399       .  A
C912        H917   1.085       .  S
C913        C914   1.414       .  A
C914        N915   1.430   1_655  S
N915        O919   1.262       .  A
N915        O920   1.262       .  A
N918        O922   1.262       .  A
N918        O921   1.262       .  A
C923        C924   1.396       .  A
C923        C928   1.396       .  A
C923        H930   1.084   1_455  S
C924        C925   1.416       .  A
C925        C926   1.401       .  A
C925        N932   1.432       .  S
C926        C927   1.398       .  A
C926        H931   1.082       .  S
C927        C928   1.414       .  A
C928        N929   1.430   1_455  S
N929        O933   1.262       .  A
N929        O934   1.262       .  A
N932        O936   1.262       .  A
N932        O935   1.262       .  A
C937        C938   1.396       .  A
C937        C942   1.397       .  A
C937        H944   1.084       .  S
C938        C939   1.419       .  A
C939        C940   1.402       .  A
C939        N946   1.433       .  S
C940        C941   1.397       .  A
C940        H945   1.084       .  S
C941        C942   1.414       .  A
C942        N943   1.430       .  S
N943        O947   1.262       .  A
N943        O948   1.262       .  A
N946        O950   1.262       .  A
N946        O949   1.262       .  A
C951        C952   1.409       .  A
C951        C956   1.404       .  A
C951        H958   1.084       .  S
C952        C953   1.408       .  A
C953        C954   1.403       .  A
C953        N960   1.429       .  S
C954        C955   1.406       .  A
C954        H959   1.084       .  S
C955        C956   1.405       .  A
C956        N957   1.428       .  S
N957        O961   1.262       .  A
N957        O962   1.262       .  A
N960        O964   1.262       .  A
N960        O963   1.262       .  A
C965        C966   1.393       .  A
C965        C970   1.395       .  A
C965        H972   1.085       .  S
C966        C967   1.418       .  A
C967        C968   1.405       .  A
C967        N974   1.429       .  S
C968        C969   1.398       .  A
C968        H973   1.084       .  S
C969        C970   1.421       .  A
C970        N971   1.430       .  S
N971        O975   1.261       .  A
N971        O976   1.262       .  A
N974        O978   1.262       .  A
N974        O977   1.262       .  A
C979        C980   1.402       .  A
C979        C984   1.399       .  A
C979        H986   1.084       .  S
C980        C981   1.405       .  A
C981        C982   1.400       .  A
C981        N988   1.429       .  S
C982        C983   1.406       .  A
C982        H987   1.084       .  S
C983        C984   1.408       .  A
C984        N985   1.429       .  S
N985        O989   1.262       .  A
N985        O990   1.262       .  A
N988        O992   1.262       .  A
N988        O991   1.262       .  A
C993        C994   1.405       .  A
C993        C998   1.398       .  A
C993       H1000   1.084   1_554  S
C994        C995   1.403       .  A
C995        C996   1.401       .  A
C995       N1002   1.428       .  S
C996        C997   1.409       .  A
C996       H1001   1.084       .  S
C997        C998   1.405       .  A
C998        N999   1.429       .  S
N999       O1003   1.261       .  A
N999       O1004   1.262   1_554  A
N1002      O1006   1.262       .  A
N1002      O1005   1.262       .  A
C1007      C1008   1.413       .  A
C1007      C1012   1.396       .  A
C1007      H1014   1.084       .  S
C1008      C1009   1.404       .  A
C1009      C1010   1.401       .  A
C1009      N1016   1.429       .  S
C1010      C1011   1.413       .  A
C1010      H1015   1.084       .  S
C1011      C1012   1.405       .  A
C1012      N1013   1.429       .  S
N1013      O1017   1.262       .  A
N1013      O1018   1.262       .  A
N1016      O1020   1.262       .  A
N1016      O1019   1.262       .  A
C1021      C1022   1.416       .  A
C1021      C1026   1.399       .  A
C1021      H1028   1.084       .  S
C1022      C1023   1.401       .  A
C1023      C1024   1.399       .  A
C1023      N1030   1.429       .  S
C1024      C1025   1.415       .  A
C1024      H1029   1.084       .  S
C1025      C1026   1.402       .  A
C1026      N1027   1.429       .  S
N1027      O1031   1.262       .  A
N1027      O1032   1.262       .  A
N1030      O1034   1.262       .  A
N1030      O1033   1.262       .  A
C1035      C1036   1.410       .  A
C1035      C1040   1.400       .  A
C1035      H1042   1.084       .  S
C1036      C1037   1.403       .  A
C1037      C1038   1.403       .  A
C1037      N1044   1.429       .  S
C1038      C1039   1.413       .  A
C1038      H1043   1.084       .  S
C1039      C1040   1.404       .  A
C1040      N1041   1.429       .  S
N1041      O1045   1.262       .  A
N1041      O1046   1.262       .  A
N1044      O1048   1.262       .  A
N1044      O1047   1.262       .  A
C1049      C1050   1.410       .  A
C1049      C1054   1.397       .  A
C1049      H1056   1.084       .  S
C1050      C1051   1.403       .  A
C1051      C1052   1.400       .  A
C1051      N1058   1.428       .  S
C1052      C1053   1.411       .  A
C1052      H1057   1.084       .  S
C1053      C1054   1.404       .  A
C1054      N1055   1.429       .  S
N1055      O1059   1.262       .  A
N1055      O1060   1.262       .  A
N1058      O1062   1.262       .  A
N1058      O1061   1.262       .  A
C1063      C1064   1.412       .  A
C1063      C1068   1.403       .  A
C1063      H1070   1.084       .  S
C1064      C1065   1.403       .  A
C1065      C1066   1.401       .  A
C1065      N1072   1.429       .  S
C1066      C1067   1.414       .  A
C1066      H1071   1.084       .  S
C1067      C1068   1.406       .  A
C1068      N1069   1.429       .  S
N1069      O1073   1.262       .  A
N1069      O1074   1.262       .  A
N1072      O1076   1.262       .  A
N1072      O1075   1.262       .  A
C1077      C1078   1.411       .  A
C1077      C1082   1.401       .  A
C1077      H1084   1.084       .  S
C1078      C1079   1.406       .  A
C1079      C1080   1.403       .  A
C1079      N1086   1.430       .  S
C1080      C1081   1.408       .  A
C1080      H1085   1.083       .  S
C1081      C1082   1.403       .  A
C1082      N1083   1.428       .  S
N1083      O1087   1.262       .  A
N1083      O1088   1.262       .  A
N1086      O1090   1.262       .  A
N1086      O1089   1.262       .  A
C1091      C1092   1.411       .  A
C1091      C1096   1.402       .  A
C1091      H1098   1.084       .  S
C1092      C1093   1.402       .  A
C1093      C1094   1.396       .  A
C1093      N1100   1.429       .  S
C1094      C1095   1.412       .  A
C1094      H1099   1.084       .  S
C1095      C1096   1.406       .  A
C1096      N1097   1.429       .  S
N1097      O1101   1.262       .  A
N1097      O1102   1.262       .  A
N1100      O1104   1.262       .  A
N1100      O1103   1.262       .  A
C1105      C1106   1.397       .  A
C1105      C1110   1.393       .  A
C1105      H1112   1.085       .  S
C1106      C1107   1.419       .  A
C1107      C1108   1.401       .  A
C1107      N1114   1.431       .  S
C1108      C1109   1.397       .  A
C1108      H1113   1.084       .  S
C1109      C1110   1.413       .  A
C1110      N1111   1.429       .  S
N1111      O1115   1.262       .  A
N1111      O1116   1.262       .  A
N1114      O1118   1.261       .  A
N1114      O1117   1.261       .  A
C1119      C1120   1.412       .  A
C1119      C1124   1.401       .  A
C1119      H1126   1.083       .  S
C1120      C1121   1.404       .  A
C1121      C1122   1.397       .  A
C1121      N1128   1.430       .  S
C1122      C1123   1.412       .  A
C1122      H1127   1.084       .  S
C1123      C1124   1.403       .  A
C1124      N1125   1.428       .  S
N1125      O1129   1.262       .  A
N1125      O1130   1.262       .  A
N1128      O1132   1.262       .  A
N1128      O1131   1.262       .  A
C1133      C1134   1.402       .  A
C1133      C1138   1.397       .  A
C1133      H1140   1.085       .  S
C1134      C1135   1.412       .  A
C1135      C1136   1.405       .  A
C1135      N1142   1.429       .  S
C1136      C1137   1.402       .  A
C1136      H1141   1.084       .  S
C1137      C1138   1.407       .  A
C1138      N1139   1.428       .  S
N1139      O1143   1.261       .  A
N1139      O1144   1.261       .  A
N1142      O1146   1.262       .  A
N1142      O1145   1.262       .  A
C1147      C1148   1.399       .  A
C1147      C1152   1.400       .  A
C1147      H1154   1.085       .  S
C1148      C1149   1.412       .  A
C1149      C1150   1.408       .  A
C1149      N1156   1.426       .  S
C1150      C1151   1.402       .  A
C1150      H1155   1.084       .  S
C1151      C1152   1.413       .  A
C1152      N1153   1.429       .  S
N1153      O1157   1.262       .  A
N1153      O1158   1.262       .  A
N1156      O1160   1.261       .  A
N1156      O1159   1.261       .  A
C1161      C1162   1.412       .  A
C1161      C1166   1.415       .  A
C1161      H1168   1.074       .  S
C1162      C1163   1.431       .  A
C1163      C1164   1.431       .  A
C1163      N1170   1.429       .  S
C1164      C1165   1.411       .  A
C1164      H1169   1.083       .  S
C1165      C1166   1.424       .  A
C1166      N1167   1.431       .  S
N1167      O1171   1.261   1_565  A
N1167      O1172   1.262   1_565  A
N1170      O1174   1.262       .  A
N1170      O1173   1.262       .  A
C1175      C1176   1.414       .  A
C1175      C1180   1.420       .  A
C1175      H1182   1.076       .  S
C1176      C1177   1.431       .  A
C1177      C1178   1.428       .  A
C1177      N1184   1.429       .  S
C1178      C1179   1.409       .  A
C1178      H1183   1.083       .  S
C1179      C1180   1.422       .  A
C1180      N1181   1.430       .  S
N1181      O1185   1.262       .  A
N1181      O1186   1.262   1_565  A
N1184      O1188   1.262       .  A
N1184      O1187   1.262       .  A
C1189      C1190   1.418       .  A
C1189      C1194   1.425       .  A
C1189      H1196   1.073       .  S
C1190      C1191   1.421       .  A
C1191      C1192   1.422       .  A
C1191      N1198   1.430       .  S
C1192      C1193   1.423       .  A
C1192      H1197   1.060       .  S
C1193      C1194   1.425       .  A
C1194      N1195   1.430       .  S
N1195      O1199   1.262       .  A
N1195      O1200   1.261       .  A
N1198      O1202   1.262       .  A
N1198      O1201   1.262       .  A
C1203      C1204   1.414       .  A
C1203      C1208   1.431       .  A
C1203      H1210   1.080   1_455  S
C1204      C1205   1.416       .  A
C1205      C1206   1.415       .  A
C1205      N1212   1.430   1_554  S
C1206      C1207   1.418       .  A
C1206      H1211   1.038       .  S
C1207      C1208   1.428       .  A
C1208      N1209   1.429       .  S
N1209      O1213   1.262       .  A
N1209      O1214   1.262       .  A
N1212      O1216   1.261       .  A
N1212      O1215   1.262       .  A
