geometry optimzed in LAMMPS
_audit_creation_date              2020-11-30 
_audit_creation_method            'lammps2cif' 
_symmetry_space_group_name_H-M    'P1' 
_symmetry_Int_Tables_number       1 
_symmetry_cell_setting            triclinic 
loop_ 
_symmetry_equiv_pos_as_xyz 
  x,y,z 
_cell_length_a                    32.90009417 
_cell_length_b                    32.849522891889436 
_cell_length_c                    32.88983174923621 
_cell_angle_alpha                 90.13261112851427 
_cell_angle_beta                  90.4768274445297 
_cell_angle_gamma                 88.67585336533472 
loop_ 
_atom_site_label 
_atom_site_type_symbol 
_atom_site_fract_x 
_atom_site_fract_y 
_atom_site_fract_z 
_atom_site_charge 
O1          O  0.98235076  0.90573763  0.02022325    -0.77600
C2          C  0.99880291  0.99787101  0.11438405     0.83400
O3          O  0.90506598  0.02528437  0.97798936    -0.78700
O4          O  0.02434957  0.09528987  0.02776833    -0.80200
O5          O  0.09800324  0.98095614  0.97660924    -0.80000
O6          O  0.03041307  0.90661101  0.97291663    -0.78600
Zn7        Zn  0.96861409  0.96408298  0.03353878     1.55700
O8          O  0.09601560  0.02352283  0.02957164    -0.80000
Cd9        Cd  0.03793637  0.96834768  0.96504129     1.59700
Cd10       Cd  0.96509270  0.03677286  0.96765911     1.59600
O11         O  0.02571975  0.98147289  0.90495314    -0.80000
O12         O  0.00107646  0.00040407  0.00148129    -1.90500
Cd13       Cd  0.03474672  0.03455087  0.03818715     1.59900
O14         O  0.97382218  0.02640856  0.90643546    -0.80000
O15         O  0.02084746  0.02442908  0.09801424    -0.78600
C16         C  0.88825597  0.99858337  0.99966027     0.83900
C17         C  0.00673172  0.88742972  0.99612708     0.83500
O18         O  0.97854400  0.97247898  0.09363304    -0.77600
C19         C  0.11562803  0.00256205  0.00333174     0.84400
O20         O  0.90874828  0.97360561  0.02175733    -0.77700
C21         C  0.99922195  0.00405647  0.88709955     0.84500
C22         C  0.99994029  0.11496005  0.00452493     0.84800
O23         O  0.97542156  0.09739351  0.98036974    -0.80100
N24         N  0.99679552  0.95563432  0.54463096    -0.35700
N25         N  0.00174284  0.04602624  0.54402935    -0.56300
N26         N  0.99657829  0.04530444  0.45721202    -0.35700
N27         N  0.99809772  0.95433283  0.45753362    -0.56300
C28         C  0.00540713  0.96312671  0.58417685     0.27900
C29         C  0.00145143  0.91486640  0.53843703     0.27900
C30         C  0.00745357  0.08440789  0.46395267     0.27800
C31         C  0.00688599  0.03585723  0.41855629     0.27800
C32         C  0.99634197  0.03951979  0.58414437     0.36500
C33         C  0.99650194  0.08664966  0.53803862     0.36500
C34         C  0.98942976  0.91468974  0.46394267     0.36500
C35         C  0.98948982  0.96208027  0.41800529     0.36500
C36         C  0.01493001  0.92644477  0.60345937    -0.21000
C37         C  0.01269713  0.89620978  0.57462386    -0.21000
C38         C  0.02486639  0.09994995  0.42933981    -0.21000
C39         C  0.02515634  0.06918002  0.40094260    -0.21000
C40         C  0.98829704  0.07635607  0.60369156    -0.22100
C41         C  0.98800641  0.10604549  0.57446744    -0.22100
C42         C  0.97555699  0.89710948  0.42836910    -0.22100
C43         C  0.97511147  0.92712996  0.39942581    -0.22100
C44         C  0.00149948  0.00148468  0.60404575    -0.17400
C45         C  0.99444439  0.89393174  0.50134039    -0.17400
C46         C  0.99725467  0.99924886  0.39786215    -0.17400
C47         C  0.00173700  0.10653314  0.50043819    -0.17400
H48         H  0.02206139  0.92140687  0.63520387     0.15500
H49         H  0.01839409  0.86407956  0.57993368     0.15500
H50         H  0.03683968  0.13006889  0.42523312     0.15500
H51         H  0.03755743  0.07130522  0.37068722     0.15500
H52         H  0.98349233  0.08163248  0.63577900     0.13800
H53         H  0.98252892  0.13823243  0.57966343     0.13800
H54         H  0.96603308  0.86608845  0.42389163     0.13800
H55         H  0.96496569  0.92336702  0.36832590     0.13800
H56         H  0.98432068  0.97673585  0.52440276     0.27000
H57         H  0.97900613  0.02756056  0.47610172     0.27000
N58         N  0.45796762  0.99627536  0.95526634    -0.35700
N59         N  0.54453706  0.99589051  0.95390781    -0.56300
N60         N  0.54647947  0.99384113  0.04419383    -0.35700
N61         N  0.45955993  0.99764887  0.04566658    -0.56300
C62         C  0.46416252  0.00544806  0.91554687     0.27900
C63         C  0.41910775  0.00698024  0.96402467     0.27900
C64         C  0.58565520  0.00190179  0.03585335     0.27800
C65         C  0.54064573  0.00139810  0.08441158     0.27800
C66         C  0.53791758  0.98939232  0.91372510     0.36500
C67         C  0.58469731  0.98949022  0.96053806     0.36500
C68         C  0.41958622  0.99185749  0.03868973     0.36500
C69         C  0.46645141  0.98976759  0.08562357     0.36500
C70         C  0.42864699  0.02189617  0.89889364    -0.21000
C71         C  0.40042320  0.02329596  0.92951279    -0.21000
C72         C  0.60511649  0.01422234  0.07123511    -0.21000
C73         C  0.57695935  0.01348546  0.10183257    -0.21000
C74         C  0.57420859  0.97911198  0.89477619    -0.22100
C75         C  0.60366710  0.97870472  0.92443666    -0.22100
C76         C  0.40097065  0.98029079  0.07445002    -0.22100
C77         C  0.43052712  0.97933965  0.10417888    -0.22100
C78         C  0.50031139  0.99689448  0.89363815    -0.17400
C79         C  0.39915099  0.99946161  0.00127498    -0.17400
C80         C  0.50402783  0.99535324  0.10597521    -0.17400
C81         C  0.60510973  0.99630263  0.99787068    -0.17400
H82         H  0.42329083  0.03172403  0.86792079     0.15500
H83         H  0.36942124  0.03466156  0.92643556     0.15500
H84         H  0.63658928  0.02248726  0.07488556     0.15500
H85         H  0.58309138  0.02068309  0.13332601     0.15500
H86         H  0.57955643  0.97352361  0.86286051     0.13800
H87         H  0.63560630  0.97194769  0.91962054     0.13800
H88         H  0.36929300  0.97355354  0.07893778     0.13800
H89         H  0.42579442  0.97218159  0.13584047     0.13800
H90         H  0.47723356  0.97910278  0.97405079     0.27000
H91         H  0.52641334  0.97984280  0.02438381     0.27000
N92         N  0.04269226  0.54375926  0.99373266    -0.35700
N93         N  0.95208268  0.54520116  0.99473561    -0.56300
N94         N  0.95363238  0.45839453  0.99540743    -0.35700
N95         N  0.04411428  0.45724295  0.99958598    -0.56300
C96         C  0.03404874  0.58352418  0.00092025     0.27900
C97         C  0.08254133  0.53694515  0.00328610     0.27900
C98         C  0.91387203  0.46629839  0.00382783     0.27800
C99         C  0.96241536  0.42007462  0.00807558     0.27800
C100        C  0.95957158  0.58411997  0.98459476     0.36500
C101        C  0.91241427  0.53903394  0.98560202     0.36500
C102        C  0.08421438  0.46234400  0.99248656     0.36500
C103        C  0.03710542  0.41720562  0.99454659     0.36500
C104        C  0.06876233  0.60229733  0.01518758    -0.21000
C105        C  0.09935921  0.57305445  0.01637587    -0.21000
C106        C  0.89747622  0.43270423  0.02246524    -0.21000
C107        C  0.92801894  0.40354522  0.02504813    -0.21000
C108        C  0.92456869  0.60270828  0.96887893    -0.22100
C109        C  0.89472583  0.57413559  0.96947398    -0.22100
C110        C  0.10277104  0.42512441  0.98351014    -0.22100
C111        C  0.07290769  0.39669183  0.98434017    -0.22100
C112        C  0.99666169  0.60397534  0.99197272    -0.17400
C113        C  0.10444700  0.49967607  0.99753404    -0.17400
C114        C  0.99960289  0.39847566  0.00184276    -0.17400
C115        C  0.89190182  0.50253111  0.99350177    -0.17400
H116        H  0.07200452  0.63401105  0.02330306     0.15500
H117        H  0.13047769  0.57825375  0.02540138     0.15500
H118        H  0.86679320  0.42944930  0.03336154     0.15500
H119        H  0.92513329  0.37346672  0.03791972     0.15500
H120        H  0.92088731  0.63368293  0.95808926     0.13800
H121        H  0.86370154  0.57872908  0.95901348     0.13800
H122        H  0.13451013  0.41855886  0.97765525     0.13800
H123        H  0.07736337  0.36445693  0.97863000     0.13800
H124        H  0.02357862  0.52395826  0.97854809     0.27000
H125        H  0.97245979  0.47604239  0.97771472     0.27000
N126        N  0.95448902  0.45499015  0.50129467    -0.35700
N127        N  0.95246509  0.54540846  0.50315459    -0.56300
N128        N  0.03926287  0.54443145  0.49915455    -0.35700
N129        N  0.04116201  0.45395094  0.50406794    -0.56300
C130        C  0.91579204  0.46343628  0.51242109     0.27900
C131        C  0.96237511  0.41528863  0.51027111     0.27900
C132        C  0.03161743  0.58448407  0.50711658     0.27800
C133        C  0.07828296  0.53613562  0.51025288     0.27800
C134        C  0.91264239  0.53796388  0.49718488     0.36500
C135        C  0.95740069  0.58537807  0.49478253     0.36500
C136        C  0.03562288  0.41411444  0.49540530     0.36500
C137        C  0.08056590  0.46126971  0.49647661     0.36500
C138        C  0.89905738  0.42888833  0.52910275    -0.21000
C139        C  0.92846016  0.39847487  0.52765278    -0.21000
C140        C  0.06616123  0.60167911  0.52348505    -0.21000
C141        C  0.09552193  0.57123605  0.52555787    -0.21000
C142        C  0.89216667  0.57338057  0.48512889    -0.22100
C143        C  0.92052363  0.60337830  0.48357073    -0.22100
C144        C  0.07158390  0.39608014  0.48216448    -0.22100
C145        C  0.10009224  0.42596519  0.48282041    -0.22100
C146        C  0.89409095  0.50029828  0.50462619    -0.17400
C147        C  0.99891165  0.39366002  0.50148870    -0.17400
C148        C  0.09966271  0.49864654  0.50426347    -0.17400
C149        C  0.99447304  0.60600032  0.49928524    -0.17400
H150        H  0.86859383  0.42576417  0.54068725     0.15500
H151        H  0.92519608  0.36753010  0.53814602     0.15500
H152        H  0.06979029  0.63282669  0.53338570     0.15500
H153        H  0.12619245  0.57466801  0.53699666     0.15500
H154        H  0.86010109  0.57730564  0.47821424     0.13800
H155        H  0.91455774  0.63478398  0.47515573     0.13800
H156        H  0.07678479  0.36474171  0.47300628     0.13800
H157        H  0.13159838  0.42206750  0.47415431     0.13800
H158        H  0.97250877  0.47385591  0.48401084     0.27000
H159        H  0.02055301  0.52490189  0.48304666     0.27000
O160        O  0.52014553  0.59564186  0.52613815    -0.77600
C161        C  0.49774749  0.50252029  0.61608637     0.83400
O162        O  0.59300846  0.47558796  0.47825458    -0.78700
O163        O  0.47384191  0.40603081  0.52626032    -0.80200
O164        O  0.40102253  0.52838002  0.48122647    -0.80000
O165        O  0.47296169  0.59711298  0.47712756    -0.78600
Zn166      Zn  0.53159055  0.53587342  0.53708316     1.55700
O167        O  0.40224797  0.47972608  0.52843878    -0.80000
Cd168      Cd  0.46149144  0.53650691  0.46781270     1.59700
Cd169      Cd  0.53218646  0.46574583  0.46775693     1.59600
O170        O  0.47028856  0.52352467  0.40687156    -0.80000
O171        O  0.49767919  0.50180969  0.50305123    -1.90500
Cd172      Cd  0.46320683  0.46702855  0.53770609     1.59900
O173        O  0.52046072  0.47662094  0.40708608    -0.80000
O174        O  0.47454520  0.47764337  0.59820209    -0.78600
C175        C  0.61067506  0.49989276  0.50244395     0.83900
C176        C  0.49661964  0.61513394  0.50173128     0.83500
O177        O  0.52087330  0.52603268  0.59659314    -0.77600
C178        C  0.38300059  0.50481341  0.50554557     0.84400
O179        O  0.59092667  0.52383540  0.52604989    -0.77700
C180        C  0.49499847  0.49965441  0.38832330     0.84500
C181        C  0.49759237  0.38687140  0.50213442     0.84800
O182        O  0.52138911  0.40503865  0.47825682    -0.80100
N183        N  0.45154003  0.49925561  0.95960743    -0.35700
N184        N  0.45372085  0.49866744  0.04626414    -0.56300
N185        N  0.54463432  0.49502857  0.04409902    -0.35700
N186        N  0.54200592  0.50117096  0.95756491    -0.56300
C187        C  0.41213107  0.50906543  0.96796902     0.27900
C188        C  0.45856481  0.51144852  0.92115571     0.27900
C189        C  0.53730052  0.50207799  0.08397221     0.27800
C190        C  0.58407673  0.50424306  0.03697271     0.27800
C191        C  0.41405045  0.48981214  0.04019043     0.36500
C192        C  0.46310935  0.48694220  0.08459001     0.36500
C193        C  0.53345711  0.49672848  0.91756974     0.36500
C194        C  0.58266432  0.49466136  0.96210198     0.36500
C195        C  0.39417507  0.52798573  0.93454734    -0.21000
C196        C  0.42342886  0.52941547  0.90499290    -0.21000
C197        C  0.57246698  0.51573109  0.10250850    -0.21000
C198        C  0.60201152  0.51640169  0.07320563    -0.21000
C199        C  0.39842901  0.47196791  0.07461087    -0.22100
C200        C  0.42939430  0.47038192  0.10280324    -0.22100
C201        C  0.56886939  0.48736459  0.89654990    -0.22100
C202        C  0.60000429  0.48648287  0.92460852    -0.22100
C203        C  0.39177507  0.49941486  0.00434520    -0.17400
C204        C  0.49488781  0.50427090  0.89927331    -0.17400
C205        C  0.60445991  0.49981032  0.99908163    -0.17400
C206        C  0.50058459  0.49382145  0.10452962    -0.17400
H207        H  0.36326725  0.53965644  0.93164823     0.15500
H208        H  0.41923365  0.54217523  0.87489656     0.15500
H209        H  0.57679999  0.52398213  0.13407613     0.15500
H210        H  0.63315510  0.52461483  0.07869969     0.15500
H211        H  0.36811703  0.46079202  0.07898216     0.13800
H212        H  0.42735818  0.45816386  0.13323156     0.13800
H213        H  0.57223073  0.48244622  0.86420117     0.13800
H214        H  0.63175757  0.48112854  0.91774580     0.13800
H215        H  0.47113793  0.48106155  0.97701365     0.27000
H216        H  0.52485660  0.48061699  0.02429647     0.27000
N217        N  0.49799030  0.95698025  0.45564788    -0.35700
N218        N  0.49881943  0.95912961  0.54651617    -0.56300
N219        N  0.49417099  0.04542241  0.54448683    -0.35700
N220        N  0.50015591  0.04310731  0.45344162    -0.56300
C221        C  0.51037348  0.91883761  0.46584936     0.27900
C222        C  0.50928079  0.96322317  0.41655313     0.27900
C223        C  0.50416749  0.03895747  0.58416656     0.27800
C224        C  0.50629626  0.08319282  0.53489782     0.27800
C225        C  0.49127976  0.91959147  0.53905443     0.36500
C226        C  0.48893364  0.96614390  0.58589018     0.36500
C227        C  0.49136637  0.03609342  0.41371895     0.36500
C228        C  0.49060662  0.08262111  0.46062065     0.36500
C229        C  0.53011688  0.90070159  0.43315406    -0.21000
C230        C  0.52975650  0.92882250  0.40218527    -0.21000
C231        C  0.52318512  0.07294236  0.59962759    -0.21000
C232        C  0.52423776  0.10092813  0.56868278    -0.21000
C233        C  0.47606851  0.90149586  0.57365716    -0.22100
C234        C  0.47456814  0.93096993  0.60330604    -0.22100
C235        C  0.47567624  0.07124929  0.39577924    -0.22100
C236        C  0.47528568  0.10075246  0.42548188    -0.22100
C237        C  0.50136651  0.89891451  0.50263084    -0.17400
C238        C  0.49988246  0.99878070  0.39356333    -0.17400
C239        C  0.49893444  0.10317543  0.49744277    -0.17400
C240        C  0.49576365  0.00326660  0.60649739    -0.17400
H241        H  0.54340854  0.87028530  0.43175636     0.15500
H242        H  0.54336669  0.92435940  0.37264245     0.15500
H243        H  0.53587178  0.07709004  0.62974142     0.15500
H244        H  0.53712795  0.13088389  0.57076641     0.15500
H245        H  0.46716520  0.87022734  0.57734929     0.13800
H246        H  0.46396827  0.92676040  0.63401214     0.13800
H247        H  0.46538117  0.07538719  0.36472219     0.13800
H248        H  0.46495691  0.13202325  0.42157434     0.13800
H249        H  0.47882010  0.97567569  0.47296505     0.27000
H250        H  0.47639312  0.02702053  0.52599780     0.27000
C251        C  0.48851686  0.20803197  0.51527264     0.30600
C252        C  0.47351108  0.24317722  0.53463622    -0.35700
C253        C  0.48591928  0.28011701  0.51835172     0.16600
C254        C  0.51177605  0.28237719  0.48561689     0.22400
C255        C  0.52698857  0.24715647  0.46635015    -0.33800
C256        C  0.51414692  0.21016408  0.48234679     0.16500
O257        O  0.47989255  0.17039550  0.52483126    -0.25800
C258        C  0.49990801  0.14809577  0.49745937     0.06300
C259        C  0.52204215  0.17114826  0.47039504    -0.30700
O260        O  0.51928766  0.32020492  0.47545452    -0.22500
C261        C  0.49780740  0.34231863  0.50193261    -0.02500
C262        C  0.47636815  0.31902773  0.52927405    -0.17000
H263        H  0.45316440  0.24180698  0.56026250     0.21000
H264        H  0.54699257  0.24851600  0.44045331     0.19400
H265        H  0.54100483  0.16060506  0.44559368     0.19300
H266        H  0.45679603  0.32930693  0.55371038     0.15200
C267        C  0.51065755  0.71922199  0.51791814     0.30600
C268        C  0.52673830  0.75384176  0.53646719    -0.35700
C269        C  0.51460081  0.79129047  0.51946790     0.16600
C270        C  0.48846291  0.79448739  0.48650124     0.22400
C271        C  0.47221592  0.75991615  0.46809495    -0.33800
C272        C  0.48429820  0.72248740  0.48513242     0.16500
O273        O  0.51843345  0.68109623  0.52832805    -0.25800
C274        C  0.49669878  0.65975605  0.50188917     0.06300
C275        C  0.47470563  0.68390177  0.47444504    -0.30700
O276        O  0.48091040  0.83252265  0.47583131    -0.22500
C277        C  0.50220666  0.85394149  0.50253131    -0.02500
C278        C  0.52405606  0.82992162  0.53019961    -0.17000
H279        H  0.54730809  0.75172746  0.56226578     0.21000
H280        H  0.45161464  0.76205341  0.44231839     0.19400
H281        H  0.45497981  0.67434204  0.44988320     0.19300
H282        H  0.54356094  0.83965469  0.55486287     0.15200
C283        C  0.48177328  0.50633131  0.20890919     0.30600
C284        C  0.46141710  0.52147737  0.24324632    -0.35700
C285        C  0.47776682  0.50945537  0.28092641     0.16600
C286        C  0.51156847  0.48398158  0.28454146     0.22400
C287        C  0.53178148  0.46867216  0.25019994    -0.33800
C288        C  0.51562607  0.48095560  0.21253242     0.16500
O289        O  0.47218445  0.51424260  0.17075828    -0.25800
C290        C  0.50039976  0.49388678  0.14962584     0.06300
C291        C  0.52806404  0.47234641  0.17405905    -0.30700
O292        O  0.52190629  0.47703221  0.32269879    -0.22500
C293        C  0.49448403  0.49845207  0.34378224    -0.02500
C294        C  0.46623187  0.51925401  0.31942612    -0.17000
H295        H  0.43497277  0.54156172  0.24075091     0.21000
H296        H  0.55846720  0.44891752  0.25268864     0.19400
H297        H  0.55352957  0.45317357  0.16474329     0.19300
H298        H  0.44105824  0.53881673  0.32875668     0.15200
C299        C  0.50601240  0.52090833  0.79472569     0.30600
C300        C  0.52340543  0.53721308  0.75981946    -0.35700
C301        C  0.50941998  0.52170803  0.72272934     0.16600
C302        C  0.48016104  0.49232829  0.72013331     0.22400
C303        C  0.46238072  0.47633770  0.75504822    -0.33800
C304        C  0.47652206  0.49174025  0.79217202     0.16500
O305        O  0.51599786  0.52966377  0.83251162    -0.25800
C306        C  0.49249843  0.50592430  0.85442973     0.06300
C307        C  0.46718718  0.48175137  0.83101438    -0.30700
O308        O  0.47237575  0.48156887  0.68233989    -0.22500
C309        C  0.49698106  0.50434188  0.66053596    -0.02500
C310        C  0.52067403  0.52997912  0.68400553    -0.17000
H311        H  0.54677413  0.55982134  0.76150030     0.21000
H312        H  0.43968274  0.45304298  0.75340051     0.19400
H313        H  0.44594260  0.45935443  0.84124662     0.19300
H314        H  0.54300526  0.55138058  0.67398311     0.15200
C315        C  0.20377894  0.51661989  0.49389003     0.30600
C316        C  0.23798566  0.53589918  0.47871468    -0.35700
C317        C  0.27562316  0.52121395  0.49324023     0.16600
C318        C  0.27940363  0.48974490  0.52086781     0.22400
C319        C  0.24514287  0.47044841  0.53611531    -0.33800
C320        C  0.20744840  0.48509456  0.52146861     0.16500
O321        O  0.16570447  0.52543242  0.48423468    -0.25800
C322        C  0.14463438  0.49909080  0.50569627     0.06300
C323        C  0.16898969  0.47328783  0.52957675    -0.30700
O324        O  0.31764147  0.48029972  0.52945866    -0.22500
C325        C  0.33850953  0.50599633  0.50695124    -0.02500
C326        C  0.31397480  0.53228455  0.48393959    -0.17000
H327        H  0.23542944  0.56043234  0.45686944     0.21000
H328        H  0.24771859  0.44556471  0.55756567     0.19400
H329        H  0.15960808  0.44950753  0.54995699     0.19300
H330        H  0.32311034  0.55553107  0.46283426     0.15200
C331        C  0.78898808  0.51351443  0.51781919     0.30600
C332        C  0.75337219  0.53044630  0.53439122    -0.35700
C333        C  0.71690972  0.51553126  0.51880374     0.16600
C334        C  0.71547064  0.48603538  0.48887904     0.22400
C335        C  0.75114411  0.46903263  0.47227565    -0.33800
C336        C  0.78766141  0.48385582  0.48802473     0.16500
O337        O  0.82637218  0.52321238  0.52777683    -0.25800
C338        C  0.84925777  0.49926832  0.50423550     0.06300
C339        C  0.82689946  0.47412225  0.47887556    -0.30700
O340        O  0.67794156  0.47657903  0.47901130    -0.22500
C341        C  0.65519607  0.50032689  0.50300274    -0.02500
C342        C  0.67779357  0.52520346  0.52833701    -0.17000
H343        H  0.75404588  0.55361311  0.55782124     0.21000
H344        H  0.75048185  0.44586424  0.44883892     0.19400
H345        H  0.83808227  0.45224335  0.45673927     0.19300
H346        H  0.66693464  0.54710641  0.55060233     0.15200
C347        C  0.71097244  0.48486938  0.98582281     0.30600
C348        C  0.74682930  0.46395143  0.97402710    -0.35700
C349        C  0.78364262  0.48342472  0.98244400     0.16600
C350        C  0.78521863  0.52091752  0.00121604     0.22400
C351        C  0.74930624  0.54217831  0.01236950    -0.33800
C352        C  0.71245105  0.52271771  0.00387886     0.16500
O353        O  0.67336233  0.47178107  0.98188420    -0.25800
C354        C  0.65010343  0.50162279  0.99759268     0.06300
C355        C  0.67299234  0.53435916  0.01114216    -0.30700
O356        O  0.82298956  0.53283111  0.00734031    -0.25100
C357        C  0.84617079  0.50256444  0.99228143    -0.02500
C358        C  0.82304429  0.47124162  0.97601496    -0.17000
H359        H  0.74611709  0.43426065  0.95974771     0.21000
H360        H  0.75005417  0.57163133  0.02713269     0.19400
H361        H  0.66211243  0.56267895  0.02447195     0.19300
H362        H  0.83378188  0.44327521  0.96185579     0.15200
C363        C  0.21006041  0.50762706  0.01825601     0.30600
C364        C  0.24497133  0.51711875  0.04112966    -0.35700
C365        C  0.28267566  0.50863941  0.02261762     0.16600
C366        C  0.28587532  0.49179108  0.98432966     0.22400
C367        C  0.25098121  0.48258084  0.96134361    -0.33800
C368        C  0.21329618  0.49126982  0.97974366     0.16500
O369        O  0.17179859  0.51282123  0.02969775    -0.25800
C370        C  0.15003765  0.49970325  0.99805607     0.06300
C371        C  0.17443858  0.48630271  0.96598805    -0.30700
O372        O  0.32409865  0.48621589  0.97298269    -0.22500
C373        C  0.34603452  0.49962569  0.00439729    -0.02500
C374        C  0.32158056  0.51428595  0.03600103    -0.17000
H375        H  0.24288926  0.53020512  0.07128839     0.21000
H376        H  0.25306548  0.46955724  0.93115802     0.19400
H377        H  0.16483938  0.47447635  0.93679491     0.19300
H378        H  0.33107223  0.52756548  0.06458542     0.15200
C379        C  0.49307902  0.01894092  0.78829318     0.30600
C380        C  0.48492627  0.04267948  0.75344772    -0.35700
C381        C  0.49134898  0.02334704  0.71571293     0.16600
C382        C  0.50564993  0.98373347  0.71246353     0.22400
C383        C  0.51364639  0.95996467  0.74724963    -0.33800
C384        C  0.50644856  0.97898705  0.78491994     0.16500
O385        O  0.48874161  0.03061476  0.82659568    -0.25800
C386        C  0.49923176  0.99759283  0.84813699     0.06300
C387        C  0.51014996  0.96449476  0.82363374    -0.30700
O388        O  0.50938476  0.97169515  0.67427361    -0.22500
C389        C  0.49693930  0.00380877  0.65229976    -0.02500
C390        C  0.48499616  0.03673420  0.67682799    -0.17000
H391        H  0.47387146  0.07388873  0.75559483     0.21000
H392        H  0.52425260  0.92860883  0.74508327     0.19400
H393        H  0.51983696  0.93424291  0.83311859     0.19300
H394        H  0.47275236  0.06613116  0.66746477     0.15200
C395        C  0.50831086  0.01566169  0.28701580     0.30600
C396        C  0.51625093  0.03788540  0.25148330    -0.35700
C397        C  0.51029738  0.01744033  0.21429359     0.16600
C398        C  0.49766021  0.97775316  0.21214717     0.22400
C399        C  0.48938507  0.95568830  0.24766182    -0.33800
C400        C  0.49504121  0.97624469  0.28481391     0.16500
O401        O  0.51189431  0.02875340  0.32496073    -0.25800
C402        C  0.50059503  0.99740559  0.34773384     0.06300
C403        C  0.48938587  0.96406691  0.32399901    -0.30700
O404        O  0.49409916  0.96456588  0.17423900    -0.22500
C405        C  0.50462254  0.99620297  0.15157427    -0.02500
C406        C  0.51462687  0.03004359  0.17502195    -0.17000
H407        H  0.52627775  0.06901280  0.25273393     0.21000
H408        H  0.47910609  0.92465000  0.24641929     0.19400
H409        H  0.47831054  0.93505041  0.33408640     0.19300
H410        H  0.52354157  0.05971650  0.16454124     0.15200
C411        C  0.00818462  0.78731247  0.48696342     0.30600
C412        C  0.02651333  0.75140108  0.47141810    -0.35700
C413        C  0.01017806  0.71439836  0.48437382     0.16600
C414        C  0.97773891  0.71275828  0.51054315     0.22400
C415        C  0.95943904  0.74867649  0.52614261    -0.33800
C416        C  0.97606720  0.78569339  0.51354741     0.16500
O417        O  0.01879420  0.82512135  0.47906664    -0.25800
C418        C  0.99346197  0.84825022  0.50122958     0.06300
C419        C  0.96618012  0.82523165  0.52327713    -0.30700
O420        O  0.96758830  0.67491218  0.51893917    -0.22500
C421        C  0.99406548  0.65175064  0.49812916    -0.02500
C422        C  0.02119292  0.67487639  0.47597056    -0.17000
H423        H  0.05200145  0.75224133  0.45087220     0.21000
H424        H  0.93419568  0.74781111  0.54698403     0.19400
H425        H  0.94241399  0.83615403  0.54336499     0.19300
H426        H  0.04563314  0.66403069  0.45665020     0.15200
C427        C  0.98771172  0.21281982  0.48535725     0.30600
C428        C  0.96869569  0.24863842  0.47028570    -0.35700
C429        C  0.98399197  0.28566609  0.48482800     0.16600
C430        C  0.01613327  0.28737247  0.51193606     0.22400
C431        C  0.03503014  0.25161161  0.52707386    -0.33800
C432        C  0.01946838  0.21462470  0.51290198     0.16500
O433        O  0.97774896  0.17492636  0.47666842    -0.25800
C434        C  0.00316763  0.15206438  0.49931008     0.06300
C435        C  0.02994022  0.17526442  0.52226270    -0.30700
O436        O  0.02570954  0.32514298  0.52134626    -0.22500
C437        C  0.99911811  0.34814768  0.50031003    -0.02500
C438        C  0.97238771  0.32513247  0.47706809    -0.17000
H439        H  0.94345240  0.24770798  0.44901985     0.21000
H440        H  0.05994788  0.25255853  0.54871697     0.19400
H441        H  0.05333659  0.16457192  0.54322950     0.19300
H442        H  0.94815866  0.33602305  0.45715598     0.15200
C443        C  0.01373989  0.70810387  0.97826696     0.30600
C444        C  0.03260760  0.74244848  0.96248153    -0.35700
C445        C  0.01950347  0.78008378  0.97842259     0.16600
C446        C  0.99001878  0.78356918  0.00794236     0.22400
C447        C  0.97114908  0.74928869  0.02364722    -0.33800
C448        C  0.98403212  0.71175304  0.00754333     0.16500
O449        O  0.02172020  0.66989944  0.96832878    -0.25800
C450        C  0.99647560  0.64896569  0.99125073     0.06300
C451        C  0.97232106  0.67338454  0.01626051    -0.30700
O452        O  0.98211782  0.82161808  0.01827716    -0.22500
C453        C  0.00678109  0.84285653  0.99508631    -0.02500
C454        C  0.03084490  0.81867329  0.96966315    -0.17000
H455        H  0.05584215  0.73998945  0.93944491     0.21000
H456        H  0.94796992  0.75173885  0.04674021     0.19400
H457        H  0.95014433  0.66402996  0.03828433     0.19300
H458        H  0.05300352  0.82818308  0.94768689     0.15200
C459        C  0.01443999  0.29344978  0.01737924     0.30600
C460        C  0.03266054  0.25795742  0.03349360    -0.35700
C461        C  0.01639011  0.22123815  0.01992689     0.16600
C462        C  0.98447565  0.21960750  0.99245204     0.22400
C463        C  0.96630047  0.25502291  0.97643632    -0.33800
C464        C  0.98253930  0.29163786  0.98993277     0.16500
O465        O  0.02479032  0.33111950  0.02548641    -0.25800
C466        C  0.99904434  0.35353126  0.00298611     0.06300
C467        C  0.97223306  0.33058023  0.98013604    -0.30700
O468        O  0.97438499  0.18211259  0.98352826    -0.22500
C469        C  0.00012043  0.15941478  0.00557190    -0.02500
C470        C  0.02695299  0.18203160  0.02889821    -0.17000
H471        H  0.05779317  0.25889797  0.05489868     0.21000
H472        H  0.94137244  0.25408189  0.95480023     0.19400
H473        H  0.94874416  0.34120210  0.95922600     0.19300
H474        H  0.05089682  0.17113075  0.04915904     0.15200
C475        C  0.78356248  0.01099516  0.98391056     0.30600
C476        C  0.74783868  0.02861082  0.96753156    -0.35700
C477        C  0.71141456  0.01334598  0.98230386     0.16600
C478        C  0.71028118  0.98281474  0.01104888     0.22400
C479        C  0.74594473  0.96513054  0.02723456    -0.33800
C480        C  0.78231820  0.98039079  0.01255151     0.16500
O481        O  0.82098052  0.02121164  0.97535113    -0.25800
C482        C  0.84386241  0.99682703  0.99883364     0.06300
C483        C  0.82149189  0.97062949  0.02246587    -0.30700
O484        O  0.67300311  0.97307815  0.02051359    -0.22500
C485        C  0.64994095  0.99752172  0.99741266    -0.02500
C486        C  0.67211558  0.02349699  0.97319085    -0.17000
H487        H  0.74841050  0.05266588  0.94511919     0.21000
H488        H  0.74535418  0.94128227  0.04985362     0.19400
H489        H  0.83249171  0.94819297  0.04421372     0.19300
H490        H  0.66080036  0.04619996  0.95186409     0.15200
C491        C  0.21990962  0.99039909  0.98701093     0.30600
C492        C  0.25495134  0.97518277  0.96787152    -0.35700
C493        C  0.29190703  0.98763028  0.98453545     0.16600
C494        C  0.29431534  0.01339401  0.01764668     0.22400
C495        C  0.25922922  0.02858890  0.03685942    -0.33800
C496        C  0.22220768  0.01606121  0.02022969     0.16500
O497        O  0.18221422  0.98240437  0.97666207    -0.25800
C498        C  0.16007767  0.00315794  0.00360916     0.06300
C499        C  0.18327069  0.02475100  0.03144470    -0.30700
O500        O  0.33212127  0.02111058  0.02800551    -0.22500
C501        C  0.35413379  0.00003140  0.00112122    -0.02500
C502        C  0.33069453  0.97842078  0.97352407    -0.17000
H503        H  0.25349757  0.95497676  0.94188538     0.21000
H504        H  0.26069572  0.04867707  0.06293455     0.19400
H505        H  0.17292604  0.04383000  0.05634635     0.19300
H506        H  0.34089371  0.95881668  0.94896662     0.15200
C507        C  0.01803758  0.99652466  0.78319350     0.30600
C508        C  0.04130954  0.98841515  0.74855645    -0.35700
C509        C  0.02180061  0.99581290  0.71129020     0.16600
C510        C  0.98195563  0.00970589  0.70828515     0.22400
C511        C  0.95879044  0.01827544  0.74295591    -0.33800
C512        C  0.97849700  0.01136221  0.78028967     0.16500
O513        O  0.03028303  0.99174534  0.82105865    -0.25800
C514        C  0.99842557  0.00420341  0.84269286     0.06300
C515        C  0.96526976  0.01682705  0.81904153    -0.30700
O516        O  0.96954565  0.01347888  0.67033708    -0.22500
C517        C  0.00189900  0.00195560  0.64888850    -0.02500
C518        C  0.03549050  0.99115444  0.67269736    -0.17000
H519        H  0.07243079  0.97713440  0.75054776     0.21000
H520        H  0.92765442  0.02951338  0.74094501     0.19400
H521        H  0.93576649  0.02800226  0.82897707     0.19300
H522        H  0.06533978  0.98089106  0.66287843     0.15200
C523        C  0.98863167  0.01603493  0.21823855     0.30600
C524        C  0.97907938  0.03852344  0.25324645    -0.35700
C525        C  0.98682332  0.01875685  0.29024946     0.16600
C526        C  0.00368013  0.98000018  0.29270706     0.22400
C527        C  0.01234917  0.95713053  0.25770728    -0.33800
C528        C  0.00376714  0.97652449  0.22065164     0.16500
O529        O  0.98480225  0.02882868  0.18047984    -0.25800
C530        C  0.99674614  0.99676558  0.15857902     0.06300
C531        C  0.00866734  0.96327777  0.18177030    -0.30700
O532        O  0.00991299  0.96816951  0.33048112    -0.22500
C533        C  0.99629729  0.99948633  0.35264870    -0.02500
C534        C  0.98098638  0.03158836  0.32904213    -0.17000
H535        H  0.96669675  0.06930247  0.25174369     0.21000
H536        H  0.02503515  0.92647469  0.25926441     0.19400
H537        H  0.02037914  0.93401510  0.17143631     0.19300
H538        H  0.96767400  0.06031390  0.33901393     0.15200
loop_ 
_geom_bond_atom_site_label_1 
_geom_bond_atom_site_label_2 
_geom_bond_distance 
_geom_bond_site_symmetry_2 
_ccdc_geom_bond_type 
O1           C17   1.273   1_654  A
O1           Zn7   2.007       .  S
C2           O18   1.273       .  A
C2           O15   1.271   1_665  A
C2          C530   1.456       .  S
O3           C16   1.271   1_545  A
O3          Cd10   2.050       .  S
O4           C22   1.271   1_455  A
O4          Cd13   2.046       .  S
O5           C19   1.273   1_566  A
O5           Cd9   2.061       .  S
O6           C17   1.273       .  A
O6           Cd9   2.066       .  S
Zn7          O18   2.020       .  S
Zn7          O20   2.022       .  S
Zn7          O12   1.939   1_665  S
O8           C19   1.273       .  A
O8          Cd13   2.062       .  S
Cd9          O11   2.058       .  S
Cd9          O12   1.994   1_566  S
Cd10         O14   2.063       .  S
Cd10         O23   2.069       .  S
Cd10         O12   1.996   1_656  S
O11          C21   1.272   1_465  A
O12         Cd13   1.993       .  S
Cd13         O15   2.053       .  S
O14          C21   1.273       .  A
C16          O20   1.275   1_556  A
C16         C482   1.463       .  S
C17         C453   1.464       .  S
C19         C498   1.463       .  S
C21         C514   1.461       .  S
C22          O23   1.274   1_554  A
C22         C469   1.461   1_655  S
N24          C29   1.359   1_655  A
N24          C28   1.352   1_655  A
N24          H56   1.037       .  S
N25          C32   1.351   1_455  A
N25          C33   1.356   1_455  A
N26          C31   1.352   1_655  A
N26          C30   1.359   1_655  A
N26          H57   1.041       .  S
N27          C34   1.357       .  A
N27          C35   1.352       .  A
C28          C36   1.391       .  A
C28          C44   1.422   1_565  A
C29          C45   1.419   1_455  A
C29          C37   1.384       .  A
C30          C38   1.383       .  A
C30          C47   1.413       .  A
C31          C46   1.421   1_445  A
C31          C39   1.391       .  A
C32          C44   1.418   1_655  A
C32          C40   1.390       .  A
C33          C47   1.414   1_655  A
C33          C41   1.383       .  A
C34          C42   1.382       .  A
C34          C45   1.414       .  A
C35          C43   1.390       .  A
C35          C46   1.420       .  A
C36          C37   1.374       .  A
C36          H48   1.080       .  S
C37          H49   1.082       .  S
C38          C39   1.375       .  A
C38          H50   1.083       .  S
C39          H51   1.082       .  S
C40          C41   1.371       .  A
C40          H52   1.081       .  S
C41          H53   1.082       .  S
C42          C43   1.372       .  A
C42          H54   1.082       .  S
C43          H55   1.081       .  S
C44         C517   1.475       .  S
C45         C418   1.502       .  S
C46         C533   1.487       .  S
C47         C434   1.498       .  S
N58          C63   1.351   1_565  A
N58          C62   1.359   1_565  A
N58          H90   1.039       .  S
N59          C66   1.355       .  A
N59          C67   1.349       .  A
N60          C65   1.360   1_565  A
N60          C64   1.352   1_565  A
N60          H91   1.038       .  S
N61          C68   1.351       .  A
N61          C69   1.356       .  A
C62          C70   1.385       .  A
C62          C78   1.418   1_545  A
C63          C79   1.420   1_546  A
C63          C71   1.389       .  A
C64          C72   1.388       .  A
C64          C81   1.418   1_544  A
C65          C80   1.421   1_545  A
C65          C73   1.387       .  A
C66          C78   1.415       .  A
C66          C74   1.386       .  A
C67          C81   1.414       .  A
C67          C75   1.387       .  A
C68          C76   1.388       .  A
C68          C79   1.417       .  A
C69          C77   1.385       .  A
C69          C80   1.416       .  A
C70          C71   1.375       .  A
C70          H82   1.081       .  S
C71          H83   1.082       .  S
C72          C73   1.374       .  A
C72          H84   1.082       .  S
C73          H85   1.080       .  S
C74          C75   1.369       .  A
C74          H86   1.080       .  S
C75          H87   1.082       .  S
C76          C77   1.373       .  A
C76          H88   1.082       .  S
C77          H89   1.081       .  S
C78         C386   1.497       .  S
C79         C501   1.481   1_565  S
C80         C405   1.500       .  S
C81         C485   1.477       .  S
N92          C97   1.359   1_556  A
N92          C96   1.351   1_556  A
N92         H124   1.039       .  S
N93         C100   1.351       .  A
N93         C101   1.356       .  A
N94          C99   1.351   1_556  A
N94          C98   1.358   1_556  A
N94         H125   1.040       .  S
N95         C102   1.356       .  A
N95         C103   1.350       .  A
C96         C104   1.388       .  A
C96         C112   1.417   1_454  A
C97         C113   1.419   1_554  A
C97         C105   1.387       .  A
C98         C106   1.386       .  A
C98         C115   1.419   1_554  A
C99         C114   1.416       .  A
C99         C107   1.388       .  A
C100        C112   1.416       .  A
C100        C108   1.388       .  A
C101        C115   1.415       .  A
C101        C109   1.384       .  A
C102        C110   1.386       .  A
C102        C113   1.418       .  A
C103        C111   1.387       .  A
C103        C114   1.414   1_456  A
C104        C105   1.376       .  A
C104        H116   1.082       .  S
C105        H117   1.081       .  S
C106        C107   1.374       .  A
C106        H118   1.082       .  S
C107        H119   1.082       .  S
C108        C109   1.374       .  A
C108        H120   1.082       .  S
C109        H121   1.082       .  S
C110        C111   1.372       .  A
C110        H122   1.080       .  S
C111        H123   1.082       .  S
C112        C450   1.478       .  S
C113        C370   1.500       .  S
C114        C466   1.478       .  S
C115        C357   1.505       .  S
N126        C131   1.357       .  A
N126        C130   1.350       .  A
N126        H158   1.041       .  S
N127        C134   1.351       .  A
N127        C135   1.356       .  A
N128        C133   1.354       .  A
N128        C132   1.359       .  A
N128        H159   1.040       .  S
N129        C136   1.355       .  A
N129        C137   1.349       .  A
C130        C138   1.389       .  A
C130        C146   1.414       .  A
C131        C147   1.414       .  A
C131        C139   1.385       .  A
C132        C140   1.385       .  A
C132        C149   1.420   1_455  A
C133        C148   1.418       .  A
C133        C141   1.388       .  A
C134        C146   1.415       .  A
C134        C142   1.388       .  A
C135        C149   1.415       .  A
C135        C143   1.385       .  A
C136        C144   1.384       .  A
C136        C147   1.412   1_455  A
C137        C145   1.388       .  A
C137        C148   1.414       .  A
C138        C139   1.376       .  A
C138        H150   1.082       .  S
C139        H151   1.082       .  S
C140        C141   1.376       .  A
C140        H152   1.082       .  S
C141        H153   1.082       .  S
C142        C143   1.374       .  A
C142        H154   1.082       .  S
C143        H155   1.082       .  S
C144        C145   1.373       .  A
C144        H156   1.082       .  S
C145        H157   1.082       .  S
C146        C338   1.476       .  S
C147        C437   1.495       .  S
C148        C322   1.480       .  S
C149        C421   1.503       .  S
O160        C176   1.274       .  A
O160       Zn166   2.023       .  S
C161        O177   1.274       .  A
C161        O174   1.271       .  A
C161        C309   1.463       .  S
O162        C175   1.272       .  A
O162       Cd169   2.061       .  S
O163        C181   1.273       .  A
O163       Cd172   2.060       .  S
O164        C178   1.274       .  A
O164       Cd168   2.065       .  S
O165        C176   1.273       .  A
O165       Cd168   2.057       .  S
Zn166       O177   2.020       .  S
Zn166       O179   2.019       .  S
Zn166       O171   1.944       .  S
O167        C178   1.272       .  A
O167       Cd172   2.059       .  S
Cd168       O170   2.070       .  S
Cd168       O171   1.995       .  S
Cd169       O173   2.060       .  S
Cd169       O182   2.064       .  S
Cd169       O171   1.998       .  S
O170        C180   1.275       .  A
O171       Cd172   1.995       .  S
Cd172       O174   2.052       .  S
O173        C180   1.273       .  A
C175        O179   1.275       .  A
C175        C341   1.465       .  S
C176        C274   1.466       .  S
C178        C325   1.464       .  S
C180        C293   1.465       .  S
C181        O182   1.273       .  A
C181        C261   1.463       .  S
N183        C188   1.351       .  A
N183        C187   1.359       .  A
N183        H215   1.038       .  S
N184        C191   1.357       .  A
N184        C192   1.350       .  A
N185        C190   1.362       .  A
N185        C189   1.354       .  A
N185        H216   1.038       .  S
N186        C193   1.351       .  A
N186        C194   1.357       .  A
C187        C195   1.385       .  A
C187        C203   1.416   1_556  A
C188        C204   1.415       .  A
C188        C196   1.388       .  A
C189        C197   1.387       .  A
C189        C206   1.421       .  A
C190        C205   1.426   1_554  A
C190        C198   1.387       .  A
C191        C203   1.415       .  A
C191        C199   1.384       .  A
C192        C206   1.414       .  A
C192        C200   1.388       .  A
C193        C201   1.388       .  A
C193        C204   1.417       .  A
C194        C202   1.386       .  A
C194        C205   1.419       .  A
C195        C196   1.375       .  A
C195        H207   1.082       .  S
C196        H208   1.082       .  S
C197        C198   1.375       .  A
C197        H209   1.082       .  S
C198        H210   1.079       .  S
C199        C200   1.372       .  A
C199        H211   1.081       .  S
C200        H212   1.082       .  S
C201        C202   1.373       .  A
C201        H213   1.082       .  S
C202        H214   1.081       .  S
C203        C373   1.505       .  S
C204        C306   1.477       .  S
C205        C354   1.505       .  S
C206        C290   1.483       .  S
N217        C222   1.359       .  A
N217        C221   1.351       .  A
N217        H249   1.042       .  S
N218        C225   1.349       .  A
N218        C226   1.356       .  A
N219        C224   1.351       .  A
N219        C223   1.359       .  A
N219        H250   1.042       .  S
N220        C227   1.356       .  A
N220        C228   1.349       .  A
C221        C229   1.387       .  A
C221        C237   1.414       .  A
C222        C238   1.420       .  A
C222        C230   1.386       .  A
C223        C231   1.386       .  A
C223        C240   1.419       .  A
C224        C239   1.414       .  A
C224        C232   1.387       .  A
C225        C237   1.414       .  A
C225        C233   1.388       .  A
C226        C240   1.415   1_565  A
C226        C234   1.385       .  A
C227        C235   1.385       .  A
C227        C238   1.416   1_545  A
C228        C236   1.387       .  A
C228        C239   1.413       .  A
C229        C230   1.376       .  A
C229        H241   1.082       .  S
C230        H242   1.082       .  S
C231        C232   1.374       .  A
C231        H243   1.081       .  S
C232        H244   1.082       .  S
C233        C234   1.373       .  A
C233        H245   1.082       .  S
C234        H246   1.081       .  S
C235        C236   1.374       .  A
C235        H247   1.081       .  S
C236        H248   1.082       .  S
C237        C277   1.477       .  S
C238        C402   1.508       .  S
C239        C258   1.477       .  S
C240        C389   1.507       .  S
C251        C256   1.381       .  A
C251        C252   1.399       .  A
C251        O257   1.314       .  A
C252        C253   1.398       .  A
C252        H263   1.082       .  S
C253        C262   1.357       .  A
C253        C254   1.381       .  A
C254        C255   1.402       .  A
C254        O260   1.317       .  A
C255        C256   1.401       .  A
C255        H264   1.082       .  S
C256        C259   1.360       .  A
O257        C258   1.329       .  A
C258        C259   1.391       .  A
C259        H265   1.082       .  S
O260        C261   1.330       .  A
C261        C262   1.389       .  A
C262        H266   1.083       .  S
C267        C272   1.381       .  A
C267        C268   1.402       .  A
C267        O273   1.318       .  A
C268        C269   1.401       .  A
C268        H279   1.082       .  S
C269        C278   1.359       .  A
C269        C270   1.381       .  A
C270        C271   1.400       .  A
C270        O276   1.316       .  A
C271        C272   1.400       .  A
C271        H280   1.082       .  S
C272        C275   1.358       .  A
O273        C274   1.330       .  A
C274        C275   1.390       .  A
C275        H281   1.083       .  S
O276        C277   1.329       .  A
C277        C278   1.391       .  A
C278        H282   1.082       .  S
C283        C288   1.380       .  A
C283        C284   1.402       .  A
C283        O289   1.316       .  A
C284        C285   1.401       .  A
C284        H295   1.082       .  S
C285        C294   1.361       .  A
C285        C286   1.381       .  A
C286        C287   1.402       .  A
C286        O292   1.317       .  A
C287        C288   1.401       .  A
C287        H296   1.082       .  S
C288        C291   1.360       .  A
O289        C290   1.331       .  A
C290        C291   1.391       .  A
C291        H297   1.082       .  S
O292        C293   1.330       .  A
C293        C294   1.390       .  A
C294        H298   1.082       .  S
C299        C304   1.381       .  A
C299        C300   1.400       .  A
C299        O305   1.316       .  A
C300        C301   1.399       .  A
C300        H311   1.082       .  S
C301        C310   1.359       .  A
C301        C302   1.381       .  A
C302        C303   1.402       .  A
C302        O308   1.316       .  A
C303        C304   1.401       .  A
C303        H312   1.082       .  S
C304        C307   1.359       .  A
O305        C306   1.329       .  A
C306        C307   1.391       .  A
C307        H313   1.083       .  S
O308        C309   1.330       .  A
C309        C310   1.389       .  A
C310        H314   1.082       .  S
C315        C320   1.381       .  A
C315        C316   1.400       .  A
C315        O321   1.316       .  A
C316        C317   1.399       .  A
C316        H327   1.082       .  S
C317        C326   1.359       .  A
C317        C318   1.381       .  A
C318        C319   1.403       .  A
C318        O324   1.317       .  A
C319        C320   1.402       .  A
C319        H328   1.082       .  S
C320        C323   1.361       .  A
O321        C322   1.329       .  A
C322        C323   1.392       .  A
C323        H329   1.083       .  S
O324        C325   1.330       .  A
C325        C326   1.390       .  A
C326        H330   1.083       .  S
C331        C336   1.381       .  A
C331        C332   1.399       .  A
C331        O337   1.316       .  A
C332        C333   1.399       .  A
C332        H343   1.082       .  S
C333        C342   1.357       .  A
C333        C334   1.381       .  A
C334        C335   1.402       .  A
C334        O340   1.318       .  A
C335        C336   1.402       .  A
C335        H344   1.082       .  S
C336        C339   1.359       .  A
O337        C338   1.328       .  A
C338        C339   1.391       .  A
C339        H345   1.082       .  S
O340        C341   1.331       .  A
C341        C342   1.389       .  A
C342        H346   1.082       .  S
C347        C352   1.378   1_556  A
C347        C348   1.408       .  A
C347        O353   1.325       .  A
C348        C349   1.408       .  A
C348        H359   1.082       .  S
C349        C358   1.366       .  A
C349        C350   1.378   1_556  A
C350        C351   1.409       .  A
C350        O356   1.325       .  A
C351        C352   1.409       .  A
C351        H360   1.082       .  S
C352        C355   1.368       .  A
O353        C354   1.335       .  A
C354        C355   1.397   1_556  A
C355        H361   1.082       .  S
O356        C357   1.336   1_554  A
C357        C358   1.397       .  A
C358        H362   1.082       .  S
C363        C368   1.379   1_554  A
C363        C364   1.408       .  A
C363        O369   1.324       .  A
C364        C365   1.408       .  A
C364        H375   1.082       .  S
C365        C374   1.367       .  A
C365        C366   1.378   1_554  A
C366        C367   1.408       .  A
C366        O372   1.323       .  A
C367        C368   1.407       .  A
C367        H376   1.082       .  S
C368        C371   1.366       .  A
O369        C370   1.335   1_554  A
C370        C371   1.395       .  A
C371        H377   1.082       .  S
O372        C373   1.335   1_556  A
C373        C374   1.398       .  A
C374        H378   1.082       .  S
C379        C384   1.379   1_545  A
C379        C380   1.408       .  A
C379        O385   1.324       .  A
C380        C381   1.408       .  A
C380        H391   1.082       .  S
C381        C390   1.366       .  A
C381        C382   1.378   1_545  A
C382        C383   1.406       .  A
C382        O388   1.322       .  A
C383        C384   1.406       .  A
C383        H392   1.082       .  S
C384        C387   1.364       .  A
O385        C386   1.334   1_545  A
C386        C387   1.394       .  A
C387        H393   1.082       .  S
O388        C389   1.335   1_565  A
C389        C390   1.399       .  A
C390        H394   1.082       .  S
C395        C400   1.378   1_545  A
C395        C396   1.409       .  A
C395        O401   1.324       .  A
C396        C397   1.408       .  A
C396        H407   1.082       .  S
C397        C406   1.367       .  A
C397        C398   1.379   1_545  A
C398        C399   1.408       .  A
C398        O404   1.324       .  A
C399        C400   1.408       .  A
C399        H408   1.082       .  S
C400        C403   1.366       .  A
O401        C402   1.336   1_545  A
C402        C403   1.398       .  A
C403        H409   1.082       .  S
O404        C405   1.334       .  A
C405        C406   1.396   1_565  A
C406        H410   1.082       .  S
C411        C416   1.379   1_455  A
C411        C412   1.409       .  A
C411        O417   1.325       .  A
C412        C413   1.409       .  A
C412        H423   1.082       .  S
C413        C422   1.368       .  A
C413        C414   1.379   1_455  A
C414        C415   1.410       .  A
C414        O420   1.325       .  A
C415        C416   1.409       .  A
C415        H424   1.082       .  S
C416        C419   1.369       .  A
O417        C418   1.335   1_455  A
C418        C419   1.396       .  A
C419        H425   1.082       .  S
O420        C421   1.335       .  A
C421        C422   1.396   1_655  A
C422        H426   1.082       .  S
C427        C432   1.379   1_655  A
C427        C428   1.409       .  A
C427        O433   1.324       .  A
C428        C429   1.408       .  A
C428        H439   1.082       .  S
C429        C438   1.367       .  A
C429        C430   1.380   1_655  A
C430        C431   1.406       .  A
C430        O436   1.323       .  A
C431        C432   1.406       .  A
C431        H440   1.082       .  S
C432        C435   1.366       .  A
O433        C434   1.335   1_655  A
C434        C435   1.394       .  A
C435        H441   1.082       .  S
O436        C437   1.333   1_455  A
C437        C438   1.395       .  A
C438        H442   1.082       .  S
C443        C448   1.381   1_456  A
C443        C444   1.403       .  A
C443        O449   1.317       .  A
C444        C445   1.402       .  A
C444        H455   1.082       .  S
C445        C454   1.362       .  A
C445        C446   1.381   1_456  A
C446        C447   1.400       .  A
C446        O452   1.315       .  A
C447        C448   1.399       .  A
C447        H456   1.082       .  S
C448        C451   1.358       .  A
O449        C450   1.331   1_455  A
C450        C451   1.389   1_556  A
C451        H457   1.082       .  S
O452        C453   1.329   1_654  A
C453        C454   1.391       .  A
C454        H458   1.083       .  S
C459        C464   1.381   1_454  A
C459        C460   1.402       .  A
C459        O465   1.317       .  A
C460        C461   1.401       .  A
C460        H471   1.082       .  S
C461        C470   1.359       .  A
C461        C462   1.381   1_454  A
C462        C463   1.398       .  A
C462        O468   1.315       .  A
C463        C464   1.397       .  A
C463        H472   1.082       .  S
C464        C467   1.355       .  A
O465        C466   1.331   1_455  A
C466        C467   1.389   1_554  A
C467        H473   1.082       .  S
O468        C469   1.327   1_656  A
C469        C470   1.392       .  A
C470        H474   1.083       .  S
C475        C480   1.381   1_546  A
C475        C476   1.402       .  A
C475        O481   1.316       .  A
C476        C477   1.401       .  A
C476        H487   1.082       .  S
C477        C486   1.359       .  A
C477        C478   1.381   1_546  A
C478        C479   1.399       .  A
C478        O484   1.315       .  A
C479        C480   1.398       .  A
C479        H488   1.082       .  S
C480        C483   1.358       .  A
O481        C482   1.330   1_545  A
C482        C483   1.389   1_556  A
C483        H489   1.082       .  S
O484        C485   1.328   1_554  A
C485        C486   1.392   1_565  A
C486        H490   1.083       .  S
C491        C496   1.381   1_566  A
C491        C492   1.400       .  A
C491        O497   1.315       .  A
C492        C493   1.399       .  A
C492        H503   1.082       .  S
C493        C502   1.357       .  A
C493        C494   1.381   1_566  A
C494        C495   1.402       .  A
C494        O500   1.317       .  A
C495        C496   1.401       .  A
C495        H504   1.082       .  S
C496        C499   1.360       .  A
O497        C498   1.329   1_566  A
C498        C499   1.391       .  A
C499        H505   1.083       .  S
O500        C501   1.331       .  A
C501        C502   1.390   1_544  A
C502        H506   1.082       .  S
C507        C512   1.381   1_465  A
C507        C508   1.400       .  A
C507        O513   1.314       .  A
C508        C509   1.398       .  A
C508        H519   1.082       .  S
C509        C518   1.358       .  A
C509        C510   1.381   1_465  A
C510        C511   1.401       .  A
C510        O516   1.315       .  A
C511        C512   1.400       .  A
C511        H520   1.082       .  S
C512        C515   1.360       .  A
O513        C514   1.328   1_465  A
C514        C515   1.390       .  A
C515        H521   1.083       .  S
O516        C517   1.329   1_655  A
C517        C518   1.389   1_545  A
C518        H522   1.083       .  S
C523        C528   1.382   1_645  A
C523        C524   1.401       .  A
C523        O529   1.316       .  A
C524        C525   1.399       .  A
C524        H535   1.082       .  S
C525        C534   1.357       .  A
C525        C526   1.379   1_645  A
C526        C527   1.401       .  A
C526        O532   1.316       .  A
C527        C528   1.400       .  A
C527        H536   1.082       .  S
C528        C531   1.360       .  A
O529        C530   1.328   1_545  A
C530        C531   1.387   1_655  A
C531        H537   1.082       .  S
O532        C533   1.331   1_455  A
C533        C534   1.393   1_565  A
C534        H538   1.082       .  S
