geometry optimzed in LAMMPS
_audit_creation_date              2020-11-30 
_audit_creation_method            'lammps2cif' 
_symmetry_space_group_name_H-M    'P1' 
_symmetry_Int_Tables_number       1 
_symmetry_cell_setting            triclinic 
loop_ 
_symmetry_equiv_pos_as_xyz 
  x,y,z 
_cell_length_a                    36.78587790237697 
_cell_length_b                    36.863495045566985 
_cell_length_c                    36.84495384024701 
_cell_angle_alpha                 90.58447575983438 
_cell_angle_beta                  89.54238722847312 
_cell_angle_gamma                 89.43469266874816 
loop_ 
_atom_site_label 
_atom_site_type_symbol 
_atom_site_fract_x 
_atom_site_fract_y 
_atom_site_fract_z 
_atom_site_charge 
C1          C  0.11123466  0.86357196  0.53578672     0.02870
C2          C  0.09327399  0.85067260  0.50412391     0.02870
C3          C  0.11244381  0.85560518  0.47046200     0.02870
C4          C  0.14126342  0.88223411  0.46786809     0.02870
C5          C  0.14592393  0.90673775  0.49811758     0.02870
C6          C  0.13625558  0.89271858  0.53286326     0.02870
C7          C  0.10171423  0.10488784  0.53002308     0.02870
C8          C  0.13429682  0.08660632  0.53568015     0.02870
C9          C  0.15053853  0.07023723  0.50318581     0.02870
C10         C  0.14688618  0.09256317  0.47084970     0.02870
C11         C  0.11198684  0.11192044  0.46630155     0.02870
C12         C  0.08754450  0.11352642  0.49630027     0.02870
C13         C  0.90327745  0.11412505  0.46347421     0.02870
C14         C  0.92626447  0.12370302  0.49320982     0.02870
C15         C  0.90976863  0.12068226  0.52884782     0.02870
C16         C  0.88504659  0.09061735  0.53330101     0.02870
C17         C  0.87325017  0.07049283  0.50269388     0.02870
C18         C  0.87369399  0.08931096  0.46887695     0.02870
C19         C  0.91734273  0.86397321  0.46565713     0.02870
C20         C  0.93305828  0.85501989  0.50004956     0.02870
C21         C  0.91074503  0.86299122  0.53188427     0.02870
C22         C  0.88416230  0.89206628  0.52990958     0.02870
C23         C  0.87905528  0.91008207  0.49608786     0.02870
C24         C  0.88969016  0.89157509  0.46370217     0.02870
C25         C  0.48210305  0.12273715  0.10509943     0.02870
C26         C  0.51643164  0.12563266  0.08691860     0.02870
C27         C  0.54724028  0.11604576  0.10907147     0.02870
C28         C  0.54249180  0.09225860  0.14025580     0.02870
C29         C  0.50862470  0.07305783  0.14205980     0.02870
C30         C  0.47810901  0.09365439  0.13069973     0.02870
C31         C  0.47568867  0.10694637  0.90723544     0.02870
C32         C  0.50912722  0.11372547  0.92504336     0.02870
C33         C  0.54180730  0.10812667  0.90448365     0.02870
C34         C  0.54211626  0.08378421  0.87360633     0.02870
C35         C  0.50941734  0.06452885  0.86447426     0.02870
C36         C  0.47548135  0.08205704  0.87654643     0.02870
C37         C  0.47494079  0.89083454  0.12293302     0.02870
C38         C  0.50592081  0.91089746  0.13318545     0.02870
C39         C  0.54094335  0.89429832  0.12578804     0.02870
C40         C  0.54371700  0.86904702  0.09528326     0.02870
C41         C  0.51164512  0.86048915  0.07477522     0.02870
C42         C  0.47741897  0.86478498  0.09389535     0.02870
C43         C  0.47309765  0.88832738  0.86669135     0.02870
C44         C  0.50623389  0.90363774  0.85527677     0.02870
C45         C  0.53749035  0.87950445  0.85654007     0.02870
C46         C  0.53869052  0.85385431  0.88781820     0.02870
C47         C  0.50624239  0.85223324  0.91104638     0.02870
C48         C  0.47307080  0.86218895  0.89462203     0.02870
C49         C  0.12107330  0.45835126  0.85848392     0.02870
C50         C  0.09932802  0.49092978  0.85282396     0.02870
C51         C  0.11869688  0.52329339  0.86077562     0.02870
C52         C  0.13993153  0.52368672  0.89335062     0.02870
C53         C  0.14794475  0.49052589  0.91164289     0.02870
C54         C  0.14734501  0.45825028  0.88888993     0.02870
C55         C  0.13428714  0.51799913  0.09415754     0.02870
C56         C  0.13720404  0.48417572  0.07437484     0.02870
C57         C  0.13037916  0.45133037  0.09342815     0.02870
C58         C  0.10698228  0.45308164  0.12484522     0.02870
C59         C  0.09200682  0.48760870  0.13677176     0.02870
C60         C  0.11179819  0.51986022  0.12681189     0.02870
C61         C  0.90892266  0.51922646  0.13040586     0.02870
C62         C  0.92936325  0.48622097  0.13712660     0.02870
C63         C  0.91136228  0.45298690  0.12714213     0.02870
C64         C  0.88255979  0.45370303  0.10136160     0.02870
C65         C  0.87188536  0.48629559  0.08506029     0.02870
C66         C  0.87729884  0.51852319  0.10646730     0.02870
C67         C  0.91674271  0.51695013  0.87663534     0.02870
C68         C  0.93618082  0.48296122  0.86958167     0.02870
C69         C  0.91779760  0.44963079  0.87670641     0.02870
C70         C  0.88944875  0.45021972  0.90368363     0.02870
C71         C  0.88047923  0.48368877  0.92222681     0.02870
C72         C  0.88690681  0.51687665  0.90284514     0.02870
C73         C  0.11659095  0.90772846  0.78102193     0.43040
N74         N  0.17160028  0.92646407  0.78216248     0.01930
C75         C  0.24669016  0.07816783  0.85596777    -0.05950
H76         H  0.15758038  0.09892723  0.75049968     0.07420
C77         C  0.23653235  0.03895591  0.66831832    -0.06300
Co78       Co  0.18236453  0.99077171  0.82969209     0.74180
N79         N  0.17347101  0.05309529  0.78164044    -0.25470
Co80       Co  0.22946380  0.05555686  0.77949520     0.74070
C81         C  0.21129429  0.07059239  0.66880817     0.43140
N82         N  0.24441311  0.95138246  0.70437056     0.01550
N83         N  0.22724559  0.05704545  0.72333405     0.01650
N84         N  0.21277675  0.04063752  0.89023386    -0.46320
H85         H  0.09722755  0.95362857  0.81990187     0.07410
N86         N  0.15514776  0.03015201  0.80176353     0.01940
N87         N  0.28628972  0.05563352  0.77803193     0.01680
C88         C  0.34236234  0.06395485  0.79206781     0.43280
N89         N  0.22665891  0.92656949  0.72291102    -0.24930
C90         C  0.21266053  0.94207168  0.89080794    -0.05850
N91         N  0.15062023  0.90084105  0.76904231    -0.46040
N92         N  0.30802565  0.07573700  0.79844154    -0.46260
C93         C  0.23391315  0.90856757  0.89142567     0.43060
N94         N  0.21213250  0.03136668  0.85526175     0.01930
N95         N  0.28374985  0.92484554  0.77669416    -0.24950
N96         N  0.15365091  0.95015340  0.80266138    -0.25450
N97         N  0.30237806  0.94948089  0.75886764     0.01560
H98         H  0.29910515  0.88031655  0.81102539     0.07450
H99         H  0.36105804  0.01560055  0.75633482     0.07490
N100        N  0.23078518  0.05392636  0.83500712    -0.25490
N101        N  0.24459334  0.03243395  0.70349406    -0.25110
N102        N  0.22924876  0.92599207  0.83624270     0.01930
C103        C  0.11489991  0.06594200  0.78098212     0.43330
C104        C  0.20809935  0.90578759  0.69965667    -0.06360
N105        N  0.30401685  0.03042869  0.75929113    -0.25110
H106        H  0.24580683  0.02277456  0.64537159     0.07470
N107        N  0.11985469  0.03746124  0.80304314    -0.46330
H108        H  0.19015739  0.88387357  0.70677360     0.07460
C109        C  0.34240375  0.91572630  0.78457325     0.43160
C110        C  0.11834615  0.94052847  0.80376628    -0.05860
Co111      Co  0.22786441  0.92518669  0.77935505     0.73820
N112        N  0.23832025  0.94927032  0.66909638    -0.46050
C113        C  0.23482714  0.06980641  0.89236769     0.43430
N114        N  0.24294179  0.90021188  0.85673214    -0.46040
Co115      Co  0.27479920  0.99093913  0.73053935     0.73890
C116        C  0.33975750  0.03365280  0.76618684    -0.06360
C117        C  0.15019712  0.07554164  0.76629102    -0.05930
N118        N  0.21129100  0.95069842  0.85552796    -0.25450
N119        N  0.20724788  0.07991562  0.70404514    -0.46220
H120        H  0.26153424  0.10122600  0.84610033     0.07430
C121        C  0.30665253  0.90232170  0.79340456    -0.06340
Cl122      Cl  0.22873763  0.99043863  0.77975775    -0.49340
C123        C  0.21623773  0.92074403  0.66421143     0.43190
H124        H  0.19835563  0.95602450  0.91266949     0.07400
N125        N  0.33790485  0.94551863  0.76374006    -0.46050
C126        C  0.09010171  0.09535785  0.78909324     0.43040
N127        N  0.07698567  0.15085559  0.79882074     0.01930
C128        C  0.91604718  0.22610850  0.85156741    -0.05950
H129        H  0.90564470  0.13644789  0.74570187     0.07420
C130        C  0.98858575  0.21183091  0.66721884    -0.06300
Co131      Co  0.00729702  0.16228203  0.83552929     0.74180
N132        N  0.94986106  0.15129550  0.78009766    -0.25470
Co133      Co  0.95018554  0.20709612  0.77591012     0.74070
C134        C  0.95546186  0.19013128  0.66241826     0.43140
N135        N  0.06789001  0.21480113  0.71561694     0.01550
N136        N  0.95886203  0.20270230  0.71955440     0.01650
N137        N  0.95343346  0.19544125  0.88916272    -0.46320
H138        H  0.03858169  0.07570253  0.81881129     0.07410
N139        N  0.96976087  0.13336607  0.80367952     0.01940
N140        N  0.95207184  0.26321175  0.77265153     0.01680
C141        C  0.94157051  0.32018871  0.78268878     0.43280
N142        N  0.08963675  0.19962222  0.73936590    -0.24930
C143        C  0.05247652  0.19405809  0.90182802    -0.05850
N144        N  0.10136800  0.12924182  0.78418678    -0.46040
N145        N  0.92959977  0.28640831  0.78936620    -0.46260
C146        C  0.08463525  0.21741637  0.90459820     0.43060
N147        N  0.96483313  0.19365372  0.85503940     0.01930
N148        N  0.08146721  0.26228349  0.78921346    -0.24950
N149        N  0.04989616  0.13308718  0.81368429    -0.25450
N150        N  0.05960728  0.27862933  0.76634054     0.01560
H151        H  0.12093904  0.28229571  0.82759379     0.07450
H152        H  0.99308117  0.33507861  0.74972751     0.07490
N153        N  0.94312781  0.21072875  0.83235420    -0.25490
N154        N  0.98778992  0.21843255  0.70380965    -0.25110
N155        N  0.06974913  0.21157859  0.84884285     0.01930
C156        C  0.93323036  0.09385966  0.78136031     0.43330
C157        C  0.11323409  0.17706055  0.72203865    -0.06360
N158        N  0.97945320  0.27920922  0.75618904    -0.25110
H159        H  0.00107353  0.22472808  0.69023794     0.07470
N160        N  0.95987387  0.09878630  0.80617469    -0.46330
H161        H  0.13367793  0.16018805  0.73444726     0.07460
C162        C  0.08813053  0.32196409  0.79252860     0.43160
C163        C  0.05609927  0.09720800  0.80966338    -0.05860
Co164      Co  0.08003779  0.20626768  0.79443877     0.73820
N165        N  0.07462784  0.20216252  0.68228421    -0.46050
C166        C  0.92299958  0.21594025  0.88908048     0.43430
N167        N  0.09313047  0.22692002  0.87065950    -0.46040
Co168      Co  0.02383078  0.24852167  0.73462528     0.73890
C169        C  0.97464932  0.31517927  0.76019298    -0.06360
C170        C  0.92697685  0.12859434  0.76415574    -0.05930
N171        N  0.04510014  0.19229706  0.86597342    -0.25450
N172        N  0.93905446  0.18553355  0.69523131    -0.46220
H173        H  0.89276147  0.24004885  0.84034154     0.07430
C174        C  0.10106213  0.28743857  0.80675130    -0.06340
Cl175      Cl  0.01522354  0.20612078  0.78502778    -0.49340
C176        C  0.10303315  0.17824697  0.68426597     0.43190
H177        H  0.03865232  0.17912838  0.92285330     0.07400
N178        N  0.06250379  0.31441841  0.76759230    -0.46050
C179        C  0.09198293  0.87931483  0.22560329     0.43040
N180        N  0.07412713  0.82441965  0.22089520     0.01930
C181        C  0.92172292  0.75392423  0.14239910    -0.05950
H182        H  0.89838942  0.83732956  0.25265497     0.07420
C183        C  0.96313458  0.75281295  0.33123645    -0.06300
Co184      Co  0.00991281  0.81583142  0.17295004     0.74180
N185        N  0.94577093  0.82339918  0.22136608    -0.25470
Co186      Co  0.94469953  0.76744314  0.22083998     0.74070
C187        C  0.93178594  0.77695204  0.33428338     0.43140
N188        N  0.04862876  0.75045406  0.29571040     0.01550
N189        N  0.94394563  0.76701380  0.27786249     0.01650
N190        N  0.96097262  0.78820843  0.11035629    -0.46320
H191        H  0.04615009  0.89996957  0.18847962     0.07410
N192        N  0.96902304  0.84257269  0.20222558     0.01940
N193        N  0.94645246  0.71093971  0.21950387     0.01680
C194        C  0.94030177  0.65506093  0.20538964     0.43280
N195        N  0.07351622  0.76875607  0.27780782    -0.24930
C196        C  0.06098172  0.78634508  0.11035210    -0.05850
N197        N  0.09941999  0.84499538  0.23519839    -0.46040
N198        N  0.92782112  0.68877741  0.19818881    -0.46260
C199        C  0.09442869  0.76453516  0.10928032     0.43060
N200        N  0.96947445  0.78724608  0.14542593     0.01930
N201        N  0.07388696  0.71169889  0.21946805    -0.24950
N202        N  0.05024512  0.84302608  0.20184642    -0.25450
N203        N  0.04931732  0.69400362  0.23827690     0.01560
H204        H  0.11112057  0.69470486  0.17682674     0.07450
H205        H  0.98496215  0.63701700  0.24419844     0.07490
N206        N  0.94607235  0.76827340  0.16459537    -0.25490
N207        N  0.96885456  0.74862819  0.29556516    -0.25110
N208        N  0.07558980  0.76896406  0.16434098     0.01930
C209        C  0.93151375  0.88152646  0.22455784     0.43330
C210        C  0.09234833  0.78868863  0.30181163    -0.06360
N211        N  0.97072114  0.69361493  0.23907466    -0.25110
H212        H  0.97994328  0.74181169  0.35248759     0.07470
N213        N  0.96077964  0.87773290  0.20238600    -0.46330
H214        H  0.11359654  0.80768568  0.29540963     0.07460
C215        C  0.07228423  0.65356048  0.20255298     0.43160
C216        C  0.05941029  0.87829797  0.20305218    -0.05860
Co217      Co  0.07539926  0.76825750  0.22087917     0.73820
N218        N  0.04893050  0.75706164  0.33112104    -0.46050
C219        C  0.93133313  0.76697469  0.10659732     0.43430
N220        N  0.10183497  0.75529076  0.14365979    -0.46040
Co221      Co  0.00963902  0.72110129  0.26802434     0.73890
C222        C  0.96798297  0.65806650  0.23286411    -0.06360
C223        C  0.92194887  0.84567585  0.23721032    -0.05930
N224        N  0.05128082  0.78742241  0.14566992    -0.25450
N225        N  0.92166769  0.78524970  0.30007826    -0.46220
H226        H  0.89797612  0.73903056  0.15087780     0.07430
C227        C  0.09067136  0.68806177  0.19678719    -0.06340
Cl228      Cl  0.00990033  0.76829310  0.22065556    -0.49340
C229        C  0.07586983  0.78080281  0.33694221     0.43190
H230        H  0.04747514  0.80059389  0.08868758     0.07400
N231        N  0.04766684  0.65933798  0.22907271    -0.46050
C232        C  0.34894619  0.77688357  0.06166930     0.43040
N233        N  0.29316053  0.76038585  0.05603506     0.01930
C234        C  0.20917969  0.69192858  0.90531158    -0.05950
H235        H  0.29694684  0.80426456  0.88081372     0.07420
C236        C  0.21278599  0.87864563  0.95324075    -0.06300
Co237      Co  0.28070628  0.71838276  0.98756217     0.74180
N238        N  0.28475063  0.76862995  0.92522721    -0.25470
Co239      Co  0.22870132  0.76955460  0.92958515     0.74070
C240        C  0.23321492  0.88039747  0.91885586     0.43140
N241        N  0.21565012  0.83722234  0.04317285     0.01550
N242        N  0.22882016  0.82508456  0.93464099     0.01650
N243        N  0.24406028  0.65895584  0.94324953    -0.46320
H244        H  0.36587050  0.74701829  0.00909370     0.07410
N245        N  0.30522424  0.74987026  0.94755259     0.01940
N246        N  0.17258023  0.77068671  0.93422416     0.01680
C247        C  0.11679699  0.76841771  0.91791315     0.43280
N248        N  0.23523353  0.81603916  0.06433937    -0.24930
C249        C  0.24664133  0.65140417  0.02618095    -0.05850
N250        N  0.31530401  0.78008084  0.07648351    -0.46040
N251        N  0.15090817  0.75855712  0.90873486    -0.46260
C252        C  0.22080513  0.64605971  0.05576897     0.43060
N253        N  0.24961333  0.69406457  0.94751152     0.01930
N254        N  0.17959718  0.76109016  0.06231817    -0.24950
N255        N  0.31008818  0.74513315  0.02802207    -0.25450
N256        N  0.15967257  0.78211045  0.04131332     0.01560
H257        H  0.16745503  0.73045937  0.11011158     0.07450
H258        H  0.09803764  0.80291453  0.96747272     0.07490
N259        N  0.22912967  0.71383248  0.92604447    -0.25490
N260        N  0.21167260  0.84297638  0.96097478    -0.25110
N261        N  0.23549107  0.70266169  0.05351288     0.01930
C262        C  0.34295447  0.77674983  0.91235989     0.43330
C263        C  0.24948049  0.83609166  0.09081506    -0.06360
N264        N  0.15502061  0.78856963  0.96023965    -0.25110
H265        H  0.19925397  0.90015989  0.96845126     0.07470
N266        N  0.34038270  0.75442423  0.94117277    -0.46330
H267        H  0.26468573  0.82550320  0.11342093     0.07460
C268        C  0.12223351  0.76152657  0.08076781     0.43160
C269        C  0.34546819  0.75393804  0.02934016    -0.05860
Co270      Co  0.23605307  0.75967117  0.05983987     0.73820
N271        N  0.21434030  0.87139626  0.05520976    -0.46050
C272        C  0.21890358  0.65567980  0.91713372     0.43430
N273        N  0.21495728  0.67910787  0.07139623    -0.46040
Co274      Co  0.18484544  0.81357623  0.00158551     0.73890
C275        C  0.11920622  0.78888064  0.95220758    -0.06360
C276        C  0.30607255  0.78609036  0.90179185    -0.05930
N277        N  0.25370125  0.68718837  0.02644956    -0.25450
N278        N  0.24169942  0.84625106  0.90922264    -0.46220
H279        H  0.18909405  0.70039224  0.88582926     0.07430
C280        C  0.15819795  0.74648824  0.08748930    -0.06340
Cl281      Cl  0.23260137  0.76540345  0.99468421    -0.49340
C282        C  0.23569377  0.87265527  0.08499161     0.43190
H283        H  0.25623025  0.63184142  0.00618795     0.07400
N284        N  0.12512201  0.78382536  0.05198870    -0.46050
C285        C  0.07253532  0.19407443  0.33664101     0.43040
N286        N  0.06743960  0.21028924  0.28130378     0.01930
C287        C  0.91738450  0.28625874  0.20199660    -0.05950
H288        H  0.89634496  0.16944613  0.28814567     0.07420
C289        C  0.95972683  0.09792006  0.19977471    -0.06300
Co290      Co  0.00181818  0.25663384  0.26967003     0.74180
N291        N  0.93835852  0.20755302  0.27466626    -0.25470
Co292      Co  0.94055481  0.20778369  0.21869063     0.74070
C293        C  0.92579105  0.09674263  0.22098681     0.43140
N294        N  0.05035160  0.13566118  0.20315848     0.01550
N295        N  0.94312929  0.15178913  0.21724966     0.01650
N296        N  0.95844161  0.31804262  0.23440719    -0.46320
H297        H  0.02368708  0.22923373  0.35465059     0.07410
N298        N  0.96146304  0.22618772  0.29444981     0.01940
N299        N  0.94429871  0.20798655  0.16265548     0.01680
C300        C  0.92779990  0.21294771  0.10727369     0.43280
N301        N  0.07233973  0.15538948  0.22328099    -0.24930
C302        C  0.04547561  0.32140189  0.23636755    -0.05850
N303        N  0.08660158  0.18913190  0.30305809    -0.46040
N304        N  0.91923405  0.22207679  0.14166865    -0.46260
C305        C  0.07721699  0.32441320  0.21249788     0.43060
N306        N  0.96213334  0.28273564  0.23947796     0.01930
N307        N  0.07289051  0.21171785  0.16918966    -0.24950
N308        N  0.04116885  0.22812568  0.29847891    -0.25450
N309        N  0.05093894  0.19240537  0.14864708     0.01560
H310        H  0.12094759  0.24227485  0.15818347     0.07450
H311        H  0.97564941  0.17679724  0.08702884     0.07490
N312        N  0.93890287  0.26367819  0.22026983    -0.25490
N313        N  0.96849357  0.13338584  0.19920239    -0.25110
N314        N  0.06894042  0.26832481  0.22573590     0.01930
C315        C  0.93056209  0.19590445  0.33276806     0.43330
C316        C  0.09712996  0.13380349  0.23812686    -0.06360
N317        N  0.96944838  0.18955966  0.14435216    -0.25110
H318        H  0.97429342  0.07617709  0.18590312     0.07470
N319        N  0.95794604  0.21970236  0.32954694    -0.46330
H320        H  0.12008208  0.14280070  0.25391000     0.07460
C321        C  0.09028258  0.21432043  0.11207156     0.43160
C322        C  0.04266439  0.22012377  0.33386938    -0.05860
Co323      Co  0.07114430  0.21155077  0.22501472     0.73820
N324        N  0.06019125  0.10082273  0.20212086    -0.46050
C325        C  0.93048430  0.32211146  0.21131633     0.43430
N326        N  0.08991130  0.29033076  0.20667627    -0.46040
Co327      Co  0.00998796  0.16187390  0.17298070     0.73890
C328        C  0.96116862  0.19082158  0.10872769    -0.06360
C329        C  0.91717386  0.18814378  0.29657572    -0.05930
N330        N  0.04236970  0.28571028  0.24289818    -0.25450
N331        N  0.91734573  0.13105614  0.23031631    -0.46220
H332        H  0.89650389  0.27852658  0.18302323     0.07430
C333        C  0.09790197  0.22711555  0.14843040    -0.06340
Cl334      Cl  0.00586483  0.20944946  0.22153731    -0.49340
C335        C  0.08924733  0.09780465  0.22430555     0.43190
H336        H  0.02668702  0.34242712  0.24534847     0.07400
N337        N  0.06103846  0.19241195  0.11398980    -0.46050
C338        C  0.22036452  0.92670391  0.34003046     0.43040
N339        N  0.23409802  0.92999330  0.28344558     0.01930
C340        C  0.30714653  0.07711338  0.19813921    -0.05950
H341        H  0.19271603  0.09998205  0.29243978     0.07420
C342        C  0.11942800  0.03553776  0.20189282    -0.06300
Co343      Co  0.28023881  0.99414046  0.26826368     0.74180
N344        N  0.23020369  0.05782466  0.27612530    -0.25470
Co345      Co  0.22903229  0.05430537  0.21942428     0.74070
C346        C  0.11741068  0.06948009  0.22293026     0.43140
N347        N  0.15790197  0.94526012  0.20661920     0.01550
N348        N  0.17288224  0.05139464  0.21991231     0.01650
N349        N  0.34071644  0.03646018  0.22947415    -0.46320
H350        H  0.25599775  0.97524013  0.35429128     0.07410
N351        N  0.25106051  0.03550116  0.29440849     0.01940
N352        N  0.22850323  0.04938864  0.16327694     0.01680
C353        C  0.23339566  0.06412849  0.10741653     0.43280
N354        N  0.17764965  0.92338259  0.22682168    -0.24930
C355        C  0.34368859  0.94774431  0.23450016    -0.05850
N356        N  0.21436905  0.91162665  0.30705133    -0.46040
N357        N  0.24220344  0.07378033  0.14142682    -0.46260
C358        C  0.34616496  0.91476795  0.21238382     0.43060
N359        N  0.30549545  0.03271864  0.23606151     0.01930
N360        N  0.23309176  0.91989492  0.17090640    -0.24950
N361        N  0.25249329  0.95634006  0.29897599    -0.25450
N362        N  0.21384047  0.94183299  0.15024944     0.01560
H363        H  0.26300165  0.87065552  0.16044841     0.07450
H364        H  0.19834696  0.01585830  0.08887968     0.07490
N365        N  0.28539303  0.05595288  0.21787239    -0.25490
N366        N  0.15501926  0.02631485  0.20168605    -0.25110
N367        N  0.29036067  0.92540939  0.22601695     0.01930
C368        C  0.22516512  0.06860908  0.33615578     0.43330
C369        C  0.15612407  0.89866776  0.24151066    -0.06360
N370        N  0.21084195  0.02369967  0.14575894    -0.25110
H371        H  0.09817433  0.02134897  0.18764374     0.07470
N372        N  0.24872043  0.04089908  0.32985611    -0.46330
H373        H  0.16525904  0.87552639  0.25692949     0.07460
C374        C  0.23476823  0.90050477  0.11394842     0.43160
C375        C  0.24597186  0.95598129  0.33478846    -0.05860
Co376      Co  0.23389334  0.92397277  0.22709079     0.73820
N377        N  0.12318423  0.93577244  0.20563446    -0.46050
C378        C  0.34356834  0.06423771  0.20603347     0.43430
N379        N  0.31202314  0.90282587  0.20763236    -0.46040
Co380      Co  0.18369195  0.98420416  0.17520510     0.73890
C381        C  0.21208941  0.03088020  0.10997763    -0.06360
C382        C  0.21249315  0.07969124  0.29996015    -0.05930
N383        N  0.30809895  0.95226020  0.24146384    -0.25450
N384        N  0.15153403  0.07741098  0.23275745    -0.46220
H385        H  0.29854004  0.09805916  0.17967919     0.07430
C386        C  0.24768002  0.89355583  0.15037474    -0.06340
Cl387      Cl  0.23166595  0.98912666  0.22231132    -0.49340
C388        C  0.12012980  0.90687887  0.22772353     0.43190
H389        H  0.36499890  0.96614855  0.24237664     0.07400
N390        N  0.21330615  0.93062786  0.11576737    -0.46050
C391        C  0.23400555  0.09148667  0.07916129     0.43040
N392        N  0.23044586  0.14727257  0.06374277     0.01930
C393        C  0.15000528  0.23014982  0.92061556    -0.05950
H394        H  0.26145685  0.14456936  0.88931293     0.07420
C395        C  0.34008266  0.22096915  0.95920091    -0.06300
Co396      Co  0.18205865  0.15996251  0.00117951     0.74180
N397        N  0.22910534  0.15568884  0.93640139    -0.25470
Co398      Co  0.22957157  0.21161283  0.93883743     0.74070
C399        C  0.34292776  0.19465350  0.92954331     0.43140
N400        N  0.30579280  0.22205840  0.04246228     0.01550
N401        N  0.28672797  0.20983720  0.93822415     0.01650
N402        N  0.11887183  0.19288531  0.95765787    -0.46320
H403        H  0.19579028  0.07382195  0.03301541     0.07410
N404        N  0.21041502  0.13518636  0.95875783     0.01940
N405        N  0.22938408  0.26827104  0.94372513     0.01680
C406        C  0.21629410  0.32510920  0.93940452     0.43280
N407        N  0.28780762  0.20207880  0.06582321    -0.24930
C408        C  0.12017302  0.18950494  0.05183470    -0.05850
N409        N  0.24445863  0.12525868  0.08787198    -0.46040
N410        N  0.20945801  0.29182050  0.92531626    -0.46260
C411        C  0.11921532  0.21109611  0.08515887     0.43060
N412        N  0.15444162  0.19148263  0.96369928     0.01930
N413        N  0.23119972  0.25979367  0.07184741    -0.24950
N414        N  0.21082578  0.13015635  0.03930164    -0.25450
N415        N  0.24955803  0.27920342  0.04827332     0.01560
H416        H  0.19187642  0.27455991  0.11354510     0.07450
H417        H  0.25646353  0.33944545  0.98511185     0.07490
N418        N  0.17313772  0.21215713  0.94148670    -0.25490
N419        N  0.30459475  0.22765486  0.96338057    -0.25110
N420        N  0.17461446  0.20381335  0.06848684     0.01930
C421        C  0.23401664  0.09822406  0.92013502     0.43330
C422        C  0.31160091  0.18060871  0.08290236    -0.06360
N423        N  0.24872651  0.28413273  0.96907633    -0.25110
H424        H  0.36068895  0.23178215  0.97655334     0.07470
N425        N  0.21164489  0.10028378  0.94938973    -0.46330
H426        H  0.30468297  0.16013727  0.10247220     0.07460
C427        C  0.21897107  0.31854772  0.07947505     0.43160
C428        C  0.21126588  0.09447613  0.04686803    -0.05860
Co429      Co  0.23115110  0.20328406  0.06852570     0.73820
N430        N  0.34126101  0.21558479  0.04269489    -0.46050
C431        C  0.11407607  0.21740297  0.93103614     0.43430
N432        N  0.15379562  0.21850835  0.09396936    -0.46040
Co433      Co  0.27797819  0.25412037  0.00583272     0.73890
C434        C  0.24330165  0.31996216  0.96774463    -0.06360
C435        C  0.24550511  0.13475321  0.91182157    -0.05930
N436        N  0.15569501  0.18666652  0.04349140    -0.25450
N437        N  0.30861640  0.18888103  0.91789543    -0.46220
H438        H  0.15760197  0.24759601  0.89843112     0.07430
C439        C  0.21124664  0.28241027  0.09295428    -0.06340
Cl440      Cl  0.23016644  0.20724250  0.00360330    -0.49340
C441        C  0.34708696  0.18952688  0.06742541     0.43190
H442        H  0.09814424  0.17726836  0.03696506     0.07400
N443        N  0.24251149  0.31435750  0.05150349    -0.46050
C444        C  0.79730011  0.04775178  0.34002100     0.43040
N445        N  0.78566150  0.04242887  0.28309452     0.01930
C446        C  0.71310970  0.89311508  0.19719259    -0.05950
H447        H  0.83371754  0.87378858  0.28509770     0.07420
C448        C  0.90086169  0.94179687  0.19946811    -0.06300
Co449      Co  0.74144630  0.97646772  0.26832686     0.74180
N450        N  0.79281004  0.91411763  0.27199780    -0.25470
Co451      Co  0.79175308  0.91845153  0.21553152     0.74070
C452        C  0.90305979  0.90886133  0.22134598     0.43140
N453        N  0.86083425  0.02946642  0.20355908     0.01550
N454        N  0.84726918  0.92347831  0.21471297     0.01650
N455        N  0.68052075  0.93221597  0.23218554    -0.46320
H456        H  0.76034235  0.99919998  0.35327633     0.07410
N457        N  0.77305230  0.93636829  0.29235622     0.01940
N458        N  0.79093503  0.92453954  0.15993219     0.01680
C459        C  0.78583108  0.90983152  0.10399530     0.43280
N460        N  0.84100032  0.05090241  0.22490506    -0.24930
C461        C  0.67607463  0.01965135  0.23998430    -0.05850
N462        N  0.80371063  0.06227962  0.30700258    -0.46040
N463        N  0.77709805  0.90023322  0.13792047    -0.46260
C464        C  0.66978785  0.05359770  0.22066610     0.43060
N465        N  0.71585350  0.93676423  0.23679586     0.01930
N466        N  0.78450220  0.05304022  0.17052670    -0.24950
N467        N  0.76806759  0.01561055  0.29839936    -0.25450
N468        N  0.80451378  0.03181836  0.14905377     0.01560
H469        H  0.75547240  0.10283496  0.16208428     0.07450
H470        H  0.82068788  0.95816921  0.08567288     0.07490
N471        N  0.73547890  0.91450365  0.21635861    -0.25490
N472        N  0.86491115  0.94900839  0.19728621    -0.25110
N473        N  0.72744976  0.04494682  0.22820470     0.01930
C474        C  0.80453574  0.90591271  0.33056228     0.43330
C475        C  0.86255555  0.07574474  0.23970872    -0.06360
N476        N  0.80850228  0.95027379  0.14263490    -0.25110
H477        H  0.92238069  0.95727507  0.18706349     0.07470
N478        N  0.77972747  0.93287310  0.32742683    -0.46330
H479        H  0.85344259  0.09854389  0.25624715     0.07460
C480        C  0.78525185  0.07434511  0.11450433     0.43160
C481        C  0.77273180  0.01740045  0.33422718    -0.05860
Co482      Co  0.78442277  0.04868420  0.22688524     0.73820
N483        N  0.89536025  0.03952436  0.20158082    -0.46050
C484        C  0.67653344  0.90470153  0.20793255     0.43430
N485        N  0.70322004  0.06745807  0.21393626    -0.46040
Co486      Co  0.83542111  0.99010043  0.17221000     0.73890
C487        C  0.80707192  0.94312362  0.10675039    -0.06360
C488        C  0.81349733  0.89355844  0.29378569    -0.05930
N489        N  0.71195263  0.01694226  0.24360786    -0.25450
N490        N  0.86892699  0.89940857  0.22928579    -0.46220
H491        H  0.72132180  0.87305627  0.17706635     0.07430
C492        C  0.77057158  0.07993195  0.15099628    -0.06340
Cl493      Cl  0.78814270  0.98350673  0.22061305    -0.49340
C494        C  0.89847383  0.06835419  0.22422627     0.43190
H495        H  0.65764230  0.99922588  0.24923006     0.07400
N496        N  0.80654302  0.04418715  0.11528531    -0.46050
C497        C  0.67399804  0.20238132  0.07580260     0.43040
N498        N  0.72937573  0.21606155  0.06560905     0.01930
C499        C  0.80309709  0.28648196  0.91005079    -0.05950
H500        H  0.71091513  0.16875352  0.89717843     0.07420
C501        C  0.80526519  0.09948528  0.95534540    -0.06300
Co502      Co  0.73784896  0.26020247  0.99873458     0.74180
N503        N  0.72761609  0.20891526  0.93661986    -0.25470
Co504      Co  0.78405456  0.20840591  0.93522141     0.74070
C505        C  0.78323870  0.09661570  0.92256575     0.43140
N506        N  0.80573626  0.13932692  0.04582013     0.01550
N507        N  0.78496019  0.15231589  0.93960385     0.01650
N508        N  0.77454172  0.32032227  0.95308581    -0.46320
H509        H  0.65382074  0.23575382  0.02758955     0.07410
N510        N  0.70950681  0.22901444  0.96051069     0.01940
N511        N  0.84007407  0.20785564  0.93519684     0.01680
C512        C  0.89475037  0.21397433  0.91680335     0.43280
N513        N  0.78735378  0.16030256  0.06881542    -0.24930
C514        C  0.77192794  0.32483200  0.04219266    -0.05850
N515        N  0.70828267  0.19680276  0.08713399    -0.46040
N516        N  0.86002700  0.22147691  0.90893821    -0.46260
C517        C  0.79498009  0.32771746  0.07415994     0.43060
N518        N  0.76708709  0.28531533  0.95671761     0.01930
N519        N  0.84202736  0.21585600  0.06429593    -0.24950
N520        N  0.71102030  0.23331659  0.04033893    -0.25450
N521        N  0.86111502  0.19523652  0.04155418     0.01560
H522        H  0.85592530  0.24692782  0.11154678     0.07450
H523        H  0.91729930  0.18090969  0.96467577     0.07490
N524        N  0.78415134  0.26494597  0.93228051    -0.25490
N525        N  0.80472494  0.13509984  0.96388488    -0.25110
N526        N  0.78462826  0.27192397  0.06323636     0.01930
C527        C  0.66846383  0.19851100  0.93277283     0.43330
C528        C  0.77462955  0.14038559  0.09586292    -0.06360
N529        N  0.85949335  0.19103364  0.96001901    -0.25110
H530        H  0.82136650  0.07889486  0.96862335     0.07470
N531        N  0.67397660  0.22300300  0.95967371    -0.46330
H532        H  0.76045241  0.15094803  0.11957670     0.07460
C533        C  0.90015158  0.21632528  0.07906640     0.43160
C534        C  0.67555130  0.22670463  0.04497857    -0.05860
Co535      Co  0.78572829  0.21618409  0.06595300     0.73820
N536        N  0.80705201  0.10492125  0.05661811    -0.46050
C537        C  0.79676069  0.32326495  0.92372280     0.43430
N538        N  0.80236543  0.29389367  0.08522519    -0.46040
Co539      Co  0.83354649  0.16432647  0.00275575     0.73890
C540        C  0.89478785  0.19333109  0.95057409    -0.06360
C541        C  0.70399652  0.18891098  0.91767206    -0.05930
N542        N  0.76678547  0.28913808  0.03764293    -0.25450
N543        N  0.77194477  0.13036777  0.91463767    -0.46220
H544        H  0.82115609  0.27748258  0.88843245     0.07430
C545        C  0.86437642  0.23105363  0.08804934    -0.06340
Cl546      Cl  0.78531161  0.21225743  0.00067018    -0.49340
C547        C  0.78720299  0.10379215  0.08783238     0.43190
H548        H  0.76149218  0.34603707  0.02496650     0.07400
N549        N  0.89615864  0.19376808  0.05013794    -0.46050
C550        C  0.08305141  0.78355736  0.66740969     0.43040
N551        N  0.07188500  0.76719852  0.72150061     0.01930
C552        C  0.92508254  0.68580846  0.79856203    -0.05950
H553        H  0.89392947  0.79975909  0.70574827     0.07420
C554        C  0.95641723  0.87664829  0.79633307    -0.06300
Co555      Co  0.00663556  0.72052113  0.72820286     0.74180
N556        N  0.93980774  0.76619736  0.72091517    -0.25470
Co557      Co  0.94134625  0.76628611  0.77770219     0.74070
C558        C  0.92337269  0.87739899  0.77438283     0.43140
N559        N  0.04884784  0.84168296  0.79770930     0.01550
N560        N  0.94218750  0.82252884  0.77862970     0.01650
N561        N  0.96815968  0.65622676  0.76563599    -0.46320
H562        H  0.03490893  0.75106146  0.64473453     0.07410
N563        N  0.96521456  0.74918710  0.70179285     0.01940
N564        N  0.94379325  0.76677694  0.83374669     0.01680
C565        C  0.92742647  0.76045723  0.88901539     0.43280
N566        N  0.07265678  0.82178503  0.77917540    -0.24930
C567        C  0.05235105  0.65724872  0.75737674    -0.05850
N568        N  0.09383810  0.78741894  0.70184680    -0.46040
N569        N  0.91937142  0.75151926  0.85465359    -0.46260
C570        C  0.08137472  0.65280828  0.78386313     0.43060
N571        N  0.96755952  0.69146135  0.75808420     0.01930
N572        N  0.07131813  0.76548408  0.83339630    -0.24950
N573        N  0.04667462  0.75085020  0.70214569    -0.25450
N574        N  0.04862460  0.78569745  0.85292804     0.01560
H575        H  0.11984189  0.73573589  0.84577260     0.07450
H576        H  0.97302365  0.79762840  0.90965191     0.07490
N577        N  0.94298217  0.70944766  0.77753505    -0.25490
N578        N  0.96624087  0.84137921  0.79730347    -0.25110
N579        N  0.07081462  0.70950514  0.77576696     0.01930
C580        C  0.93096518  0.77424024  0.66150538     0.43330
C581        C  0.09851973  0.84305744  0.76616982    -0.06360
N582        N  0.96759451  0.78581932  0.85233819    -0.25110
H583        H  0.96953265  0.89853924  0.81076308     0.07470
N584        N  0.96139689  0.75386689  0.66636571    -0.46330
H585        H  0.12283085  0.83378949  0.75204937     0.07460
C586        C  0.08788759  0.76555695  0.89081593     0.43160
C587        C  0.05176278  0.75939054  0.66717703    -0.05860
Co588      Co  0.07219529  0.76566325  0.77746066     0.73820
N589        N  0.05839549  0.87641383  0.79968527    -0.46050
C590        C  0.94195862  0.65046792  0.79093933     0.43430
N591        N  0.09183276  0.68655808  0.79362688    -0.46040
Co592      Co  0.00764745  0.81464664  0.82579706     0.73890
C593        C  0.95933344  0.78363481  0.88782356    -0.06360
C594        C  0.91680662  0.78268732  0.69792590    -0.05930
N595        N  0.04703021  0.69291391  0.75520674    -0.25450
N596        N  0.91633612  0.84297125  0.76478653    -0.46220
H597        H  0.90451961  0.69266036  0.81864883     0.07430
C598        C  0.09613436  0.75094045  0.85494878    -0.06340
Cl599      Cl  0.00692484  0.76695869  0.77715813    -0.49340
C600        C  0.08925092  0.87907365  0.77950577     0.43190
H601        H  0.03701704  0.63758445  0.74223478     0.07400
N602        N  0.05823720  0.78748871  0.88768982    -0.46050
C603        C  0.90402372  0.06696375  0.78287190     0.43040
N604        N  0.84802122  0.05118633  0.78331131     0.01930
C605        C  0.76577201  0.89889183  0.85074437    -0.05950
H606        H  0.84924220  0.87478619  0.74355996     0.07420
C607        C  0.77351021  0.95533718  0.66497914    -0.06300
Co608      Co  0.83293658  0.98533452  0.82649046     0.74180
N609        N  0.83706095  0.92275225  0.77520512    -0.25470
Co610      Co  0.78046663  0.92658355  0.77369471     0.74070
C611        C  0.79726698  0.92373904  0.66080510     0.43140
N612        N  0.77318824  0.03684545  0.70589342     0.01550
N613        N  0.78256414  0.93041108  0.71703926     0.01650
N614        N  0.80244570  0.93420920  0.88472643    -0.46320
H615        H  0.92053474  0.01805571  0.81809510     0.07410
N616        N  0.85732189  0.94437084  0.79529063     0.01940
N617        N  0.72306616  0.93189042  0.77230478     0.01680
C618        C  0.66477785  0.92385530  0.77703863     0.43280
N619        N  0.79365839  0.05840773  0.72561447    -0.24930
C620        C  0.80524787  0.03490077  0.89139599    -0.05850
N621        N  0.87050050  0.07624482  0.77193244    -0.46040
N622        N  0.69796024  0.90966005  0.78543165    -0.46260
C623        C  0.78553410  0.06956596  0.89349541     0.43060
N624        N  0.80071055  0.94557016  0.85062574     0.01930
N625        N  0.73584639  0.06258254  0.78049768    -0.24950
N626        N  0.86445113  0.02530825  0.80160799    -0.25450
N627        N  0.71554857  0.04033802  0.76140281     0.01560
H628        H  0.72324669  0.10718232  0.81691901     0.07450
H629        H  0.65422353  0.97731534  0.74590947     0.07490
N630        N  0.78020766  0.92454854  0.83013868    -0.25490
N631        N  0.76629293  0.95768401  0.70068193    -0.25110
N632        N  0.79066776  0.05340654  0.83779356     0.01930
C633        C  0.89472098  0.90505039  0.77315451     0.43330
C634        C  0.81557819  0.07692646  0.70352554    -0.06360
N635        N  0.70844527  0.95996562  0.75587582    -0.25110
H636        H  0.76521616  0.97464122  0.64469927     0.07470
N637        N  0.89203023  0.93420398  0.79553351    -0.46330
H638        H  0.83636106  0.09560573  0.71192205     0.07460
C639        C  0.67726557  0.07562152  0.78931875     0.43160
C640        C  0.90027915  0.03305655  0.80313519    -0.05860
Co641      Co  0.79204706  0.05698520  0.78175380     0.73820
N642        N  0.78023207  0.03921028  0.67074003    -0.46050
C643        C  0.78054990  0.90502619  0.88685713     0.43430
N644        N  0.77792054  0.07923848  0.85933774    -0.46040
Co645      Co  0.74005029  0.99880599  0.73044966     0.73890
C646        C  0.67223741  0.95762470  0.75768484    -0.06360
C647        C  0.85844457  0.89746119  0.75980666    -0.05930
N648        N  0.80683657  0.02696657  0.85562210    -0.25450
N649        N  0.80214888  0.90985683  0.69424713    -0.46220
H650        H  0.75062756  0.87613420  0.84043364     0.07430
C651        C  0.71422324  0.08614541  0.79852413    -0.06340
Cl652      Cl  0.78625403  0.99187717  0.77824454    -0.49340
C653        C  0.80662530  0.06400771  0.66729178     0.43190
H654        H  0.81781482  0.01939877  0.91275771     0.07400
N655        N  0.68034058  0.04686703  0.76625703    -0.46050
C656        C  0.78677678  0.88170611  0.07617837     0.43040
N657        N  0.79237874  0.82593856  0.06039620     0.01930
C658        C  0.86309958  0.74682453  0.90791873    -0.05950
H659        H  0.75540928  0.82923777  0.88407127     0.07420
C660        C  0.67708566  0.75372184  0.96570123    -0.06300
Co661      Co  0.83656356  0.81483535  0.99412449     0.74180
N662        N  0.78553908  0.81938666  0.93217105    -0.25470
Co663      Co  0.78517522  0.76360116  0.93388222     0.74070
C664        C  0.67176486  0.78151868  0.93810438     0.43140
N665        N  0.71708714  0.75022851  0.04451720     0.01550
N666        N  0.72839204  0.76475062  0.93939494     0.01650
N667        N  0.89647890  0.78217423  0.94522622    -0.46320
H668        H  0.82115274  0.90071257  0.02744204     0.07410
N669        N  0.80532984  0.83996022  0.95362595     0.01940
N670        N  0.78639293  0.70705090  0.93581470     0.01680
C671        C  0.80364358  0.65151006  0.92826604     0.43280
N672        N  0.73653668  0.76996678  0.06698895    -0.24930
C673        C  0.90199000  0.78930891  0.04413601    -0.05850
N674        N  0.77859954  0.84762005  0.08553176    -0.46040
N675        N  0.80662191  0.68522469  0.91478246    -0.46260
C676        C  0.90410650  0.76815646  0.07772540     0.43060
N677        N  0.86145379  0.78340012  0.95389757     0.01930
N678        N  0.79370622  0.71319827  0.06597020    -0.24950
N679        N  0.80966032  0.84372980  0.03473652    -0.25450
N680        N  0.77423149  0.69392191  0.04321247     0.01560
H681        H  0.83195150  0.69882302  0.10721565     0.07450
H682        H  0.77246853  0.63397352  0.97924502     0.07490
N683        N  0.84142166  0.76367532  0.93179188    -0.25490
N684        N  0.71274737  0.74630813  0.96542126    -0.25110
N685        N  0.84882141  0.77024122  0.05987809     0.01930
C686        C  0.78279941  0.87616400  0.91409141     0.43330
C687        C  0.71409727  0.79131286  0.08681529    -0.06360
N688        N  0.77073145  0.68993965  0.96289043    -0.25110
H689        H  0.65829258  0.74223042  0.98471692     0.07470
N690        N  0.80520136  0.87447723  0.94317828    -0.46330
H691        H  0.72217473  0.81151830  0.10652332     0.07460
C692        C  0.80225530  0.65378163  0.07508237     0.43160
C693        C  0.80790441  0.87947163  0.04247713    -0.05860
Co694      Co  0.79292394  0.76976246  0.06404006     0.73820
N695        N  0.68185970  0.75773761  0.04727660    -0.46050
C696        C  0.89936282  0.75901100  0.91672498     0.43430
N697        N  0.87011935  0.75769976  0.08539579    -0.46040
Co698      Co  0.74294685  0.71903539  0.00393047     0.73890
C699        C  0.77971185  0.65463013  0.96012086    -0.06360
C700        C  0.77027807  0.83973204  0.90687894    -0.05930
N701        N  0.86643814  0.78880215  0.03500072    -0.25450
N702        N  0.70494701  0.78621281  0.92254458    -0.46220
H703        H  0.85424189  0.73046845  0.88517570     0.07430
C704        C  0.81264774  0.69038903  0.08701688    -0.06340
Cl705      Cl  0.78948792  0.76677383  0.99902448    -0.49340
C706        C  0.67788873  0.78354667  0.07330731     0.43190
H707        H  0.92307162  0.80414783  0.03026753     0.07400
N708        N  0.77859069  0.65866287  0.04767171    -0.46050
C709        C  0.92620952  0.55134255  0.85489311    -0.04760
C710        C  0.93521536  0.58524501  0.87170906    -0.01870
C711        C  0.94181399  0.61681216  0.85074952     0.03120
C712        C  0.93800439  0.61634084  0.81272912    -0.04750
C713        C  0.92902212  0.58346943  0.79567231    -0.01860
C714        C  0.92322538  0.55153210  0.81619795     0.03110
C715        C  0.93583774  0.59016920  0.91060076     0.37760
C716        C  0.92410792  0.58295760  0.75655450     0.37750
C717        C  0.90984540  0.52063273  0.79637484     0.36180
C718        C  0.95329950  0.65007740  0.86859265     0.36180
N719        N  0.89837159  0.49865734  0.77719029    -0.38640
N720        N  0.96264992  0.67640331  0.88295697    -0.38640
N721        N  0.92019204  0.58260981  0.72541929    -0.38090
N722        N  0.93590724  0.59871125  0.94090919    -0.38090
C723        C  0.86212580  0.55048509  0.90882384    -0.04760
C724        C  0.84455101  0.56821177  0.87941732    -0.01870
C725        C  0.82683155  0.60246785  0.88480301     0.03120
C726        C  0.82821487  0.62015465  0.91893055    -0.04750
C727        C  0.84845362  0.60357066  0.94646710    -0.01860
C728        C  0.85590291  0.56632719  0.94366104     0.03110
C729        C  0.83936422  0.54924866  0.84538137     0.37760
C730        C  0.85474514  0.62201351  0.98076572     0.37750
C731        C  0.83131275  0.54809269  0.96768968     0.36180
C732        C  0.80676423  0.61915953  0.85558890     0.36180
N733        N  0.80902807  0.53668937  0.98656254    -0.38640
N734        N  0.79084692  0.63258806  0.83223786    -0.38640
N735        N  0.86019398  0.63670354  0.00805513    -0.38090
N736        N  0.83323137  0.53486109  0.81809887    -0.38090
C737        C  0.92424539  0.41581433  0.85267002    -0.04760
C738        C  0.90163222  0.40904587  0.82207931    -0.01870
C739        C  0.90786399  0.37859393  0.79873449     0.03120
C740        C  0.93344918  0.35168071  0.80780283    -0.04750
C741        C  0.95279710  0.35573767  0.84041394    -0.01860
C742        C  0.95118914  0.38896771  0.86029018     0.03110
C743        C  0.87182121  0.43313037  0.81349271     0.37760
C744        C  0.97648730  0.32640499  0.85214488     0.37750
C745        C  0.97995050  0.39537249  0.88584072     0.36180
C746        C  0.88789360  0.37493297  0.76512178     0.36180
N747        N  0.00473212  0.39735500  0.90485584    -0.38640
N748        N  0.87218012  0.37217331  0.73816335    -0.38640
N749        N  0.99506142  0.30281712  0.86148911    -0.38090
N750        N  0.84729763  0.45074354  0.80470186    -0.38090
C751        C  0.86593810  0.41716325  0.90877678    -0.04760
C752        C  0.87925101  0.38550501  0.92581265    -0.01870
C753        C  0.85733472  0.35430199  0.92866536     0.03120
C754        C  0.82088900  0.35494328  0.91700484    -0.04750
C755        C  0.80774625  0.38584559  0.89900143    -0.01860
C756        C  0.83020829  0.41652729  0.89438439     0.03110
C757        C  0.91506095  0.38465317  0.94157980     0.37760
C758        C  0.77112423  0.38586249  0.88470724     0.37750
C759        C  0.81488086  0.44872083  0.87787177     0.36180
C760        C  0.87288280  0.32092023  0.94238420     0.36180
N761        N  0.80151910  0.47439796  0.86579527    -0.38640
N762        N  0.88560902  0.29400628  0.95229506    -0.38640
N763        N  0.74197890  0.38581795  0.87311338    -0.38090
N764        N  0.94327458  0.38214250  0.95500603    -0.38090
C765        C  0.93196626  0.62132988  0.18537211    -0.04760
C766        C  0.92291916  0.59053489  0.20531112    -0.01870
C767        C  0.91684298  0.55725993  0.18754813     0.03120
C768        C  0.92012552  0.55391121  0.14917372    -0.04750
C769        C  0.92945107  0.58542440  0.12920453    -0.01860
C770        C  0.93560062  0.61879867  0.14736413     0.03110
C771        C  0.91746889  0.59368816  0.24446417     0.37760
C772        C  0.92973364  0.58522940  0.08990240     0.37750
C773        C  0.94623191  0.65044891  0.12687957     0.36180
C774        C  0.90184147  0.52903471  0.20970333     0.36180
N775        N  0.95485189  0.67553410  0.11038817    -0.38640
N776        N  0.88965440  0.51047841  0.23163241    -0.38640
N777        N  0.92933247  0.58745027  0.05859853    -0.38090
N778        N  0.91300780  0.59617896  0.27552434    -0.38090
C779        C  0.81601405  0.61730984  0.08716960    -0.04760
C780        C  0.83442404  0.61266530  0.12055252    -0.01870
C781        C  0.84660011  0.57771280  0.13036429     0.03120
C782        C  0.85020337  0.55047030  0.10345380    -0.04750
C783        C  0.82129525  0.55124037  0.07851343    -0.01860
C784        C  0.80634326  0.58509479  0.06808867     0.03110
C785        C  0.83594111  0.64136832  0.14759889     0.37760
C786        C  0.79555530  0.52203417  0.08006123     0.37750
C787        C  0.77594158  0.58502551  0.04317628     0.36180
C788        C  0.83787144  0.56625120  0.16679427     0.36180
N789        N  0.75110522  0.58412931  0.02410089    -0.38640
N790        N  0.82842846  0.55775637  0.19548575    -0.38640
N791        N  0.77179152  0.50195625  0.08304699    -0.38090
N792        N  0.83735683  0.66368636  0.16985894    -0.38090
C793        C  0.91693726  0.41867994  0.14828543    -0.04760
C794        C  0.93194699  0.38653271  0.13214722    -0.01870
C795        C  0.93543847  0.35467489  0.15263282     0.03120
C796        C  0.92498809  0.35469095  0.18943341    -0.04750
C797        C  0.90808792  0.38532070  0.20493628    -0.01860
C798        C  0.90162729  0.41606496  0.18361146     0.03110
C799        C  0.94772289  0.38592844  0.09597488     0.37760
C800        C  0.89495098  0.38418204  0.24221162     0.37750
C801        C  0.87336744  0.44070838  0.19591366     0.36180
C802        C  0.95081968  0.32204100  0.13590459     0.36180
N803        N  0.84872409  0.45710490  0.20714387    -0.38640
N804        N  0.96268268  0.29605192  0.12228744    -0.38640
N805        N  0.88445137  0.38321734  0.27187531    -0.38090
N806        N  0.96354277  0.38355505  0.06875199    -0.38090
C807        C  0.81804313  0.35862810  0.08326263    -0.04760
C808        C  0.80598022  0.38512193  0.10839136    -0.01870
C809        C  0.82697142  0.41636010  0.11437907     0.03120
C810        C  0.85983571  0.42111591  0.09475220    -0.04750
C811        C  0.86966577  0.39583201  0.06745465    -0.01860
C812        C  0.85092801  0.36315612  0.06427352     0.03110
C813        C  0.77143667  0.38076713  0.12703157     0.37760
C814        C  0.89544256  0.40578936  0.03964445     0.37750
C815        C  0.86657677  0.33343825  0.04328254     0.36180
C816        C  0.81160127  0.44591387  0.13586054     0.36180
N817        N  0.87968301  0.30889247  0.02822450    -0.38640
N818        N  0.79812240  0.46953612  0.15213081    -0.38640
N819        N  0.91580231  0.41538214  0.01781475    -0.38090
N820        N  0.74382274  0.37727410  0.14178579    -0.38090
C821        C  0.87047429  0.48676786  0.04317429    -0.04760
C822        C  0.90107257  0.49970765  0.02419178    -0.01870
C823        C  0.90299273  0.50034052  0.98580873     0.03120
C824        C  0.87610564  0.48390186  0.96380335    -0.04750
C825        C  0.84592773  0.46873092  0.98254212    -0.01860
C826        C  0.84330345  0.46977833  0.02137965     0.03110
C827        C  0.93372515  0.50775165  0.04382548     0.37760
C828        C  0.81336142  0.45879560  0.96317561     0.37750
C829        C  0.81226847  0.45190904  0.03728941     0.36180
C830        C  0.93376354  0.51863295  0.97012317     0.36180
N831        N  0.78660917  0.43656791  0.04669295    -0.38640
N832        N  0.95988337  0.53336701  0.96118588    -0.38640
N833        N  0.78516494  0.45206604  0.95127825    -0.38090
N834        N  0.96085636  0.51377838  0.05791792    -0.38090
C835        C  0.07730528  0.61855376  0.18274810    -0.04760
C836        C  0.08903997  0.61776355  0.14618510    -0.01870
C837        C  0.11315150  0.59003905  0.13592969     0.03120
C838        C  0.10636084  0.55490926  0.14944705    -0.04750
C839        C  0.09480422  0.55450603  0.18628877    -0.01860
C840        C  0.07836397  0.58574300  0.20224666     0.03110
C841        C  0.08640350  0.64923155  0.12312800     0.37760
C842        C  0.11129042  0.52945160  0.21106751     0.37750
C843        C  0.06458383  0.58425794  0.23923641     0.36180
C844        C  0.14896072  0.60383715  0.14414135     0.36180
N845        N  0.05319021  0.58284649  0.26855366    -0.38640
N846        N  0.17620705  0.61655383  0.15299594    -0.38640
N847        N  0.12457837  0.51317962  0.23418483    -0.38090
N848        N  0.08481620  0.67413453  0.10431924    -0.38090
C849        C  0.15735805  0.54979357  0.08178766    -0.04760
C850        C  0.14490981  0.57481950  0.05551592    -0.01870
C851        C  0.16462592  0.60704024  0.04843261     0.03120
C852        C  0.19951035  0.61231338  0.06325601    -0.04750
C853        C  0.21389780  0.58542786  0.08600522    -0.01860
C854        C  0.19196681  0.55616981  0.09753837     0.03110
C855        C  0.11176342  0.56806642  0.03587334     0.37760
C856        C  0.25009817  0.58993051  0.10064671     0.37750
C857        C  0.20145508  0.53930616  0.13143337     0.36180
C858        C  0.14819079  0.63570550  0.02740577     0.36180
N859        N  0.20889348  0.53052956  0.16050618    -0.38640
N860        N  0.13471360  0.65915603  0.01163669    -0.38640
N861        N  0.27899909  0.59360194  0.11221284    -0.38090
N862        N  0.08604330  0.56316785  0.01872969    -0.38090
C863        C  0.10022409  0.41907636  0.14676999    -0.04760
C864        C  0.11474559  0.41554158  0.18216147    -0.01870
C865        C  0.10632664  0.38526133  0.20393162     0.03120
C866        C  0.08661040  0.35610311  0.18946027    -0.04750
C867        C  0.07592941  0.35724970  0.15284796    -0.01860
C868        C  0.08177824  0.38877277  0.13192862     0.03110
C869        C  0.14184969  0.44043066  0.19514627     0.37760
C870        C  0.05815337  0.32607196  0.13680893     0.37750
C871        C  0.06517658  0.39058208  0.09656947     0.36180
C872        C  0.11926218  0.38339923  0.24097919     0.36180
N873        N  0.04882028  0.39085771  0.06989490    -0.38640
N874        N  0.12955869  0.38187239  0.27052734    -0.38640
N875        N  0.04444639  0.30100778  0.12389910    -0.38090
N876        N  0.16507950  0.45808666  0.20638367    -0.38090
C877        C  0.15422070  0.41761444  0.08645884    -0.04760
C878        C  0.18595704  0.41233627  0.10771991    -0.01870
C879        C  0.20609701  0.37950725  0.10641846     0.03120
C880        C  0.19535962  0.35108445  0.08374530    -0.04750
C881        C  0.16478906  0.35565358  0.06160393    -0.01860
C882        C  0.14532870  0.38908703  0.06161853     0.03110
C883        C  0.20057538  0.44078590  0.12987200     0.37760
C884        C  0.15465141  0.32630088  0.03709836     0.37750
C885        C  0.11849388  0.39309512  0.03370369     0.36180
C886        C  0.23863906  0.37499978  0.12816524     0.36180
N887        N  0.09793525  0.39195305  0.01014418    -0.38640
N888        N  0.26457719  0.37137934  0.14537776    -0.38640
N889        N  0.14674995  0.30294083  0.01756305    -0.38090
N890        N  0.21638988  0.46029955  0.14842494    -0.38090
C891        C  0.05064850  0.49033412  0.14387077    -0.04760
C892        C  0.02815646  0.49026105  0.11327820    -0.01870
C893        C  0.99434415  0.47271119  0.11683603     0.03120
C894        C  0.97130308  0.48699080  0.14407524    -0.04750
C895        C  0.99095792  0.49103706  0.17794032    -0.01860
C896        C  0.03081590  0.48841092  0.17771469     0.03110
C897        C  0.03112586  0.52105207  0.08987549     0.37760
C898        C  0.97257624  0.48800076  0.21240707     0.37750
C899        C  0.04902352  0.47746665  0.21042587     0.36180
C900        C  0.00007760  0.43508933  0.12581446     0.36180
N901        N  0.06174594  0.46735755  0.23715541    -0.38640
N902        N  0.00531509  0.40759182  0.13982335    -0.38640
N903        N  0.96081134  0.48429731  0.24133554    -0.38090
N904        N  0.03284527  0.54657838  0.07200668    -0.38090
C905        C  0.11691728  0.55492187  0.83441552    -0.04760
C906        C  0.09395235  0.55303506  0.80495067    -0.01870
C907        C  0.07674250  0.58530606  0.79520557     0.03120
C908        C  0.09544926  0.61850498  0.79983926    -0.04750
C909        C  0.13002097  0.61680202  0.81677619    -0.01860
C910        C  0.14241972  0.58329657  0.83078542     0.03110
C911        C  0.11003763  0.53285983  0.77482134     0.37760
C912        C  0.15437778  0.64745491  0.81665512     0.37750
C913        C  0.17945857  0.57350374  0.82131820     0.36180
C914        C  0.04001224  0.58284934  0.78233182     0.36180
N915        N  0.20873441  0.56652271  0.81162822    -0.38640
N916        N  0.01046792  0.58006784  0.77225808    -0.38640
N917        N  0.17399472  0.67180263  0.81656012    -0.38090
N918        N  0.12384179  0.51741294  0.75084289    -0.38090
C919        C  0.15989200  0.55691111  0.90355811    -0.04760
C920        C  0.14113183  0.58919247  0.91368907    -0.01870
C921        C  0.16028410  0.62181503  0.91742104     0.03120
C922        C  0.19822221  0.62231241  0.91136429    -0.04750
C923        C  0.21686748  0.59047184  0.90077998    -0.01860
C924        C  0.19771061  0.55801760  0.89617200     0.03110
C925        C  0.10178951  0.59040088  0.91624981     0.37760
C926        C  0.25565714  0.59136273  0.89317403     0.37750
C927        C  0.21667159  0.52645294  0.88105504     0.36180
C928        C  0.14045803  0.65492013  0.92663352     0.36180
N929        N  0.23193543  0.50197857  0.86800755    -0.38640
N930        N  0.12412368  0.68108731  0.93362215    -0.38640
N931        N  0.28655791  0.59208186  0.88712895    -0.38090
N932        N  0.07046792  0.59353991  0.91752873    -0.38090
C933        C  0.11568161  0.42648761  0.83239874    -0.04760
C934        C  0.08325700  0.42189813  0.81358513    -0.01870
C935        C  0.07159584  0.38621198  0.81140770     0.03120
C936        C  0.09848368  0.35896048  0.80454139    -0.04750
C937        C  0.13539636  0.37045111  0.80312377    -0.01860
C938        C  0.14368925  0.40647357  0.81479308     0.03110
C939        C  0.08477128  0.43588521  0.77672646     0.37760
C940        C  0.16225696  0.34890846  0.78347710     0.37750
C941        C  0.16949470  0.42717921  0.79373354     0.36180
C942        C  0.03433025  0.38234375  0.80139065     0.36180
N943        N  0.18910723  0.44413060  0.77615705    -0.38640
N944        N  0.00481557  0.38441299  0.79140415    -0.38640
N945        N  0.18351333  0.33189277  0.76721167    -0.38090
N946        N  0.08761491  0.44372664  0.74649170    -0.38090
C947        C  0.17159087  0.42563819  0.90007204    -0.04760
C948        C  0.19000895  0.42488740  0.93348071    -0.01870
C949        C  0.19693148  0.39104084  0.94923591     0.03120
C950        C  0.20036126  0.35994823  0.92622363    -0.04750
C951        C  0.19512606  0.36505511  0.88850259    -0.01860
C952        C  0.18760092  0.40034283  0.87579544     0.03110
C953        C  0.22145271  0.44810729  0.93586616     0.37760
C954        C  0.20575318  0.33702457  0.86256900     0.37750
C955        C  0.21637218  0.41444255  0.85303911     0.36180
C956        C  0.20889711  0.39145717  0.98649504     0.36180
N957        N  0.24051633  0.42500279  0.83593640    -0.38640
N958        N  0.21987033  0.39401885  0.01572101    -0.38640
N959        N  0.21464982  0.31433917  0.84235582    -0.38090
N960        N  0.24855084  0.46372069  0.93734000    -0.38090
C961        C  0.14812841  0.48861101  0.95412704    -0.04760
C962        C  0.17541099  0.50274008  0.97836290    -0.01870
C963        C  0.17451104  0.49477505  0.01625728     0.03120
C964        C  0.14223764  0.48357190  0.03313775    -0.04750
C965        C  0.11352158  0.47357246  0.00984910    -0.01860
C966        C  0.11934697  0.47000278  0.97175286     0.03110
C967        C  0.20616937  0.52376897  0.96703259     0.37760
C968        C  0.07737835  0.46760675  0.02426874     0.37750
C969        C  0.09567572  0.44635784  0.95119314     0.36180
C970        C  0.20755306  0.49615236  0.03745618     0.36180
N971        N  0.07720688  0.42684075  0.93506997    -0.38640
N972        N  0.23425376  0.49642692  0.05385424    -0.38640
N973        N  0.04797517  0.46258280  0.03419682    -0.38090
N974        N  0.23251593  0.54013640  0.96266634    -0.38090
C975        C  0.05637367  0.49120573  0.85441411    -0.04760
C976        C  0.03858081  0.49302965  0.88885499    -0.01870
C977        C  0.00117967  0.48488350  0.89340092     0.03120
C978        C  0.97741101  0.48260731  0.86363515    -0.04750
C979        C  0.99381999  0.48055266  0.82923899    -0.01860
C980        C  0.03158180  0.48782733  0.82419647     0.03110
C981        C  0.05602078  0.50898432  0.91991798     0.37760
C982        C  0.97342995  0.46608375  0.79895809     0.37750
C983        C  0.04020856  0.49709850  0.78730781     0.36180
C984        C  0.98968877  0.47099934  0.92818728     0.36180
N985        N  0.04168206  0.50398037  0.75671546    -0.38640
N986        N  0.98236111  0.45781415  0.95565171    -0.38640
N987        N  0.95943594  0.45315539  0.77402979    -0.38090
N988        N  0.06693084  0.52262317  0.94598138    -0.38090
C989        C  0.62844021  0.90822967  0.78807719    -0.04760
C990        C  0.62489906  0.87125114  0.79815067    -0.01870
C991        C  0.59099847  0.85924569  0.81238948     0.03120
C992        C  0.56684099  0.88557413  0.82648390    -0.04750
C993        C  0.56304449  0.91293622  0.80005254    -0.01860
C994        C  0.59493911  0.92750938  0.78429945     0.03110
C995        C  0.65149808  0.84472426  0.78559351     0.37760
C996        C  0.53314078  0.90820366  0.77519360     0.37750
C997        C  0.59046654  0.95560952  0.75744919     0.36180
C998        C  0.57404383  0.82912626  0.79367389     0.36180
N999        N  0.58542907  0.97783669  0.73603354    -0.38640
N1000       N  0.56035316  0.80568137  0.77793536    -0.38640
N1001       N  0.51154894  0.90229620  0.75331604    -0.38090
N1002       N  0.67252812  0.82341444  0.77519414    -0.38090
C1003       C  0.57165664  0.83010748  0.89901388    -0.04760
C1004       C  0.57047751  0.80601861  0.92873008    -0.01870
C1005       C  0.60331974  0.79581015  0.94581217     0.03120
C1006       C  0.63727189  0.80116727  0.92760525    -0.04750
C1007       C  0.63573181  0.82059865  0.89458831    -0.01860
C1008       C  0.60222236  0.82299816  0.87713882     0.03110
C1009       C  0.54464477  0.77683668  0.92623877     0.37760
C1010       C  0.66760837  0.82944052  0.87364715     0.37750
C1011       C  0.59811974  0.79060627  0.85476353     0.36180
C1012       C  0.60012645  0.77787792  0.98031856     0.36180
N1013       N  0.59536556  0.76382245  0.83836228    -0.38640
N1014       N  0.59574440  0.76353372  0.00775190    -0.38640
N1015       N  0.69286210  0.83674791  0.85647629    -0.38090
N1016       N  0.52677226  0.75133578  0.92329862    -0.38090
C1017       C  0.37518629  0.90768993  0.80595600    -0.04760
C1018       C  0.39936928  0.87982719  0.79488353    -0.01870
C1019       C  0.43130536  0.87323393  0.81482762     0.03120
C1020       C  0.43922576  0.89488890  0.84567437    -0.04750
C1021       C  0.41496837  0.92280424  0.85631286    -0.01860
C1022       C  0.38199698  0.92761713  0.83796283     0.03110
C1023       C  0.39172728  0.85853687  0.76257597     0.37760
C1024       C  0.42665849  0.94887721  0.88310368     0.37750
C1025       C  0.35373979  0.95052583  0.85350343     0.36180
C1026       C  0.45762166  0.84688154  0.80126649     0.36180
N1027       N  0.32980197  0.96690762  0.86614757    -0.38640
N1028       N  0.47853586  0.82624137  0.78942214    -0.38640
N1029       N  0.43911055  0.96846214  0.90414557    -0.38090
N1030       N  0.38559151  0.84155824  0.73679541    -0.38090
C1031       C  0.43991899  0.83979950  0.90043518    -0.04760
C1032       C  0.40852584  0.85460304  0.91743410    -0.01870
C1033       C  0.37576469  0.83542834  0.91702503     0.03120
C1034       C  0.37528561  0.79904143  0.90511870    -0.04750
C1035       C  0.40639901  0.78374676  0.88837325    -0.01860
C1036       C  0.43817875  0.80460450  0.88457371     0.03110
C1037       C  0.40898371  0.88922054  0.93606327     0.37760
C1038       C  0.40559221  0.74668079  0.87487254     0.37750
C1039       C  0.46964572  0.78892487  0.86610100     0.36180
C1040       C  0.34233813  0.85404915  0.92745842     0.36180
N1041       N  0.49463853  0.77618050  0.85135502    -0.38640
N1042       N  0.31596715  0.86982904  0.93497703    -0.38640
N1043       N  0.40494605  0.71707964  0.86415397    -0.38090
N1044       N  0.40625589  0.91666796  0.95135156    -0.38090
C1045       C  0.64306466  0.90024016  0.18603177    -0.04760
C1046       C  0.62866869  0.93052515  0.16860003    -0.01870
C1047       C  0.59250232  0.93053854  0.15677853     0.03120
C1048       C  0.57289221  0.89785291  0.15236315    -0.04750
C1049       C  0.58826221  0.86662526  0.16933885    -0.01860
C1050       C  0.62290236  0.86802418  0.18627637     0.03110
C1051       C  0.65063826  0.96279792  0.16379114     0.37760
C1052       C  0.56747997  0.83380572  0.17295802     0.37750
C1053       C  0.63803757  0.83629589  0.20375481     0.36180
C1054       C  0.57492211  0.96456085  0.16253821     0.36180
N1055       N  0.65038481  0.81100356  0.21755311    -0.38640
N1056       N  0.56575457  0.99294289  0.17236506    -0.38640
N1057       N  0.55210157  0.80702247  0.17764704    -0.38090
N1058       N  0.66796369  0.98840596  0.15925542    -0.38090
C1059       C  0.64422317  0.80580526  0.07853405    -0.04760
C1060       C  0.64457243  0.84387090  0.07495339    -0.01870
C1061       C  0.61244868  0.86474602  0.08050578     0.03120
C1062       C  0.57858760  0.84762049  0.08742371    -0.04750
C1063       C  0.57870604  0.80901645  0.08971433    -0.01860
C1064       C  0.61127088  0.78862085  0.08619700     0.03110
C1065       C  0.67775317  0.86182501  0.06397022     0.37760
C1066       C  0.54637959  0.78922092  0.09903020     0.37750
C1067       C  0.61105917  0.74955042  0.09145982     0.36180
C1068       C  0.61572277  0.90381485  0.07992967     0.36180
N1069       N  0.61089533  0.71847832  0.09563769    -0.38640
N1070       N  0.62079665  0.93476223  0.07986840    -0.38640
N1071       N  0.52277181  0.77059586  0.10743108    -0.38090
N1072       N  0.70380382  0.87659128  0.05479022    -0.38090
C1073       C  0.37711497  0.90489248  0.18835857    -0.04760
C1074       C  0.37762887  0.91667408  0.15214284    -0.01870
C1075       C  0.40987512  0.91396966  0.13129584     0.03120
C1076       C  0.44070776  0.89561611  0.14507911    -0.04750
C1077       C  0.43919251  0.88206808  0.18098876    -0.01860
C1078       C  0.40773972  0.88726630  0.20262913     0.03110
C1079       C  0.34492992  0.93198051  0.13640967     0.37760
C1080       C  0.47093316  0.86564616  0.19735408     0.37750
C1081       C  0.40690659  0.87473082  0.23985119     0.36180
C1082       C  0.41176179  0.93370484  0.09766937     0.36180
N1083       N  0.40620894  0.86474130  0.26952135    -0.38640
N1084       N  0.41138930  0.95104760  0.07169329    -0.38640
N1085       N  0.49578993  0.85345731  0.21207575    -0.38090
N1086       N  0.31860391  0.94341898  0.12368827    -0.38090
C1087       C  0.44437787  0.84182118  0.08554131    -0.04760
C1088       C  0.43434240  0.81238000  0.10815730    -0.01870
C1089       C  0.40326872  0.79127474  0.10034865     0.03120
C1090       C  0.38056790  0.80028715  0.07122029    -0.04750
C1091       C  0.38865493  0.83128154  0.05069480    -0.01860
C1092       C  0.42111146  0.85071611  0.05662882     0.03110
C1093       C  0.45607664  0.80233130  0.13900502     0.37760
C1094       C  0.36160524  0.84526860  0.02623159     0.37750
C1095       C  0.43116265  0.87956059  0.03264585     0.36180
C1096       C  0.39447203  0.76014825  0.12244678     0.36180
N1097       N  0.44082745  0.90250396  0.01394077    -0.38640
N1098       N  0.38739992  0.73533440  0.14005261    -0.38640
N1099       N  0.33876529  0.85702289  0.00838368    -0.38090
N1100       N  0.47212163  0.79228644  0.16389611    -0.38090
C1101       C  0.51399875  0.85381922  0.03303019    -0.04760
C1102       C  0.49780401  0.82387615  0.01478387    -0.01870
C1103       C  0.49341901  0.82309887  0.97602178     0.03120
C1104       C  0.50752535  0.85110582  0.95333050    -0.04750
C1105       C  0.52112625  0.88151629  0.97204392    -0.01860
C1106       C  0.52793606  0.88129817  0.00997716     0.03110
C1107       C  0.48596076  0.79256063  0.03493807     0.37760
C1108       C  0.51888126  0.91642509  0.95470215     0.37750
C1109       C  0.54812263  0.91157184  0.02409098     0.36180
C1110       C  0.47179254  0.79396450  0.96143336     0.36180
N1111       N  0.56378894  0.93751130  0.03181573    -0.38640
N1112       N  0.45431259  0.76931025  0.95325667    -0.38640
N1113       N  0.51430471  0.94519201  0.94337399    -0.38090
N1114       N  0.47546724  0.76649040  0.04857861    -0.38090
C1115       C  0.64342687  0.08369393  0.81046656    -0.04760
C1116       C  0.61002110  0.08745493  0.79237541    -0.01870
C1117       C  0.57672632  0.08705479  0.81210573     0.03120
C1118       C  0.57646992  0.08111685  0.85029210    -0.04750
C1119       C  0.61023962  0.07269999  0.86649166    -0.01860
C1120       C  0.64303651  0.07969275  0.84844247     0.03110
C1121       C  0.60993682  0.09080376  0.75310898     0.37760
C1122       C  0.61199396  0.04371781  0.89256764     0.37750
C1123       C  0.67616622  0.07825448  0.86930126     0.36180
C1124       C  0.54376617  0.08623137  0.79125201     0.36180
N1125       N  0.70173993  0.07749367  0.88730220    -0.38640
N1126       N  0.51969508  0.08382598  0.77144177    -0.38640
N1127       N  0.61522710  0.01807250  0.91017891    -0.38090
N1128       N  0.60984322  0.09328250  0.72182100    -0.38090
C1129       C  0.57423327  0.13180839  0.91274911    -0.04760
C1130       C  0.59941065  0.12257900  0.94004091    -0.01870
C1131       C  0.62994263  0.14454781  0.94689531     0.03120
C1132       C  0.63476409  0.17714918  0.92791616    -0.04750
C1133       C  0.61000217  0.18653744  0.90063913    -0.01860
C1134       C  0.58128522  0.16296975  0.89164478     0.03110
C1135       C  0.59743339  0.08769108  0.95692590     0.37760
C1136       C  0.61500224  0.21992277  0.88078376     0.37750
C1137       C  0.56296124  0.16828293  0.85754573     0.36180
C1138       C  0.65795825  0.13223801  0.97147790     0.36180
N1139       N  0.55079450  0.17243640  0.82902634    -0.38640
N1140       N  0.68083085  0.12210816  0.99030724    -0.38640
N1141       N  0.61890738  0.24673311  0.86522592    -0.38090
N1142       N  0.59759214  0.05870622  0.96854149    -0.38090
C1143       C  0.37423434  0.07268295  0.81546070    -0.04760
C1144       C  0.40300808  0.09359390  0.80203685    -0.01870
C1145       C  0.43493883  0.09839067  0.82284555     0.03120
C1146       C  0.44028914  0.07878427  0.85552027    -0.04750
C1147       C  0.40974293  0.06076069  0.87025604    -0.01860
C1148       C  0.37644275  0.05968909  0.85120638     0.03110
C1149       C  0.39970698  0.11029253  0.76670377     0.37760
C1150       C  0.41144968  0.04432223  0.90561461     0.37750
C1151       C  0.34371748  0.04825112  0.86969003     0.36180
C1152       C  0.46161820  0.12382776  0.81005931     0.36180
N1153       N  0.31764995  0.04049467  0.88543633    -0.38640
N1154       N  0.48137771  0.14509408  0.79848410    -0.38640
N1155       N  0.41101433  0.03099311  0.93389583    -0.38090
N1156       N  0.39710605  0.12351802  0.73847948    -0.38090
C1157       C  0.44249962  0.13083233  0.91598217    -0.04760
C1158       C  0.43499725  0.16173145  0.89451331    -0.01870
C1159       C  0.40094714  0.17985094  0.89642708     0.03120
C1160       C  0.37494717  0.17014159  0.92254188    -0.04750
C1161       C  0.38316943  0.14139357  0.94635555    -0.01860
C1162       C  0.41711902  0.12263951  0.94385741     0.03110
C1163       C  0.46367666  0.17906834  0.87452715     0.37760
C1164       C  0.35720541  0.13217277  0.97456774     0.37750
C1165       C  0.42681350  0.09775057  0.97232511     0.36180
C1166       C  0.39295451  0.20946224  0.87196149     0.36180
N1167       N  0.43347024  0.07840864  0.99594413    -0.38640
N1168       N  0.38639681  0.23285981  0.85228383    -0.38640
N1169       N  0.33653623  0.12493867  0.99714225    -0.38090
N1170       N  0.48503233  0.19605158  0.85930056    -0.38090
C1171       C  0.50919026  0.94540174  0.84970349    -0.04760
C1172       C  0.53748924  0.96508139  0.86684248    -0.01870
C1173       C  0.54260081  0.00193588  0.85866099     0.03120
C1174       C  0.51232102  0.02435876  0.85003531    -0.04750
C1175       C  0.48646287  0.00600205  0.82842463    -0.01860
C1176       C  0.48606918  0.96698106  0.82676767     0.03110
C1177       C  0.56678361  0.94695267  0.88590326     0.37760
C1178       C  0.46813343  0.02528120  0.79984848     0.37750
C1179       C  0.46504455  0.95104589  0.79779428     0.36180
C1180       C  0.57413500  0.00506002  0.83533995     0.36180
N1181       N  0.44795923  0.94162551  0.77326027    -0.38640
N1182       N  0.59997423  0.00619268  0.81728647    -0.38640
N1183       N  0.45423549  0.03736645  0.77457229    -0.38090
N1184       N  0.59045608  0.93287671  0.90097529    -0.38090
C1185       C  0.57002550  0.09032295  0.17176941    -0.04760
C1186       C  0.59860509  0.11520643  0.17641795    -0.01870
C1187       C  0.63239155  0.10268812  0.18940478     0.03120
C1188       C  0.63419114  0.06922953  0.20799530    -0.04750
C1189       C  0.60030863  0.05340867  0.21740984    -0.01860
C1190       C  0.56789923  0.06559473  0.20059521     0.03110
C1191       C  0.58969742  0.15293498  0.18317080     0.37760
C1192       C  0.59691876  0.02917074  0.24801938     0.37750
C1193       C  0.53597804  0.06603493  0.22343433     0.36180
C1194       C  0.66375084  0.12581921  0.18534959     0.36180
N1195       N  0.51394062  0.06728272  0.24597350    -0.38640
N1196       N  0.68855593  0.14454697  0.18168455    -0.38640
N1197       N  0.59289229  0.01038582  0.27269376    -0.38090
N1198       N  0.58348959  0.18290969  0.19077543    -0.38090
C1199       C  0.64268827  0.18004237  0.08639380    -0.04760
C1200       C  0.64575118  0.14188609  0.08706595    -0.01870
C1201       C  0.61572249  0.12072021  0.09691400     0.03120
C1202       C  0.58120479  0.13736708  0.10272299    -0.04750
C1203       C  0.57913882  0.17579801  0.10470466    -0.01860
C1204       C  0.60965189  0.19695550  0.09634784     0.03110
C1205       C  0.67934777  0.12373230  0.07642340     0.37760
C1206       C  0.54713721  0.19353969  0.12027994     0.37750
C1207       C  0.60738163  0.23623067  0.09926531     0.36180
C1208       C  0.62230152  0.08278105  0.10501401     0.36180
N1209       N  0.60556287  0.26753117  0.10153823    -0.38640
N1210       N  0.62979191  0.05328497  0.11263800    -0.38640
N1211       N  0.52250707  0.20770421  0.13428188    -0.38090
N1212       N  0.70534141  0.10805756  0.06750293    -0.38090
C1213       C  0.37696270  0.07325510  0.18588328    -0.04760
C1214       C  0.40358427  0.09461005  0.20267018    -0.01870
C1215       C  0.43696556  0.10042912  0.18489686     0.03120
C1216       C  0.44295044  0.08667506  0.14928994    -0.04750
C1217       C  0.41580560  0.06625765  0.13205151    -0.01860
C1218       C  0.38274940  0.05964500  0.15030279     0.03110
C1219       C  0.39697125  0.10989202  0.23858984     0.37760
C1220       C  0.42269541  0.05067419  0.09635729     0.37750
C1221       C  0.35467312  0.03887862  0.13250642     0.36180
C1222       C  0.46558899  0.11966222  0.20372541     0.36180
N1223       N  0.33202186  0.02275086  0.11815493    -0.38640
N1224       N  0.48803209  0.13583787  0.21841575    -0.38640
N1225       N  0.42849450  0.03790569  0.06806379    -0.38090
N1226       N  0.39170024  0.12221010  0.26718507    -0.38090
C1227       C  0.38349852  0.17608560  0.07856686    -0.04760
C1228       C  0.39036446  0.16846259  0.11568571    -0.01870
C1229       C  0.42601003  0.15977929  0.12629918     0.03120
C1230       C  0.45148763  0.15003712  0.09917339    -0.04750
C1231       C  0.44885899  0.17170769  0.06854798    -0.01860
C1232       C  0.41404745  0.17668026  0.05442370     0.03110
C1233       C  0.36301683  0.17382330  0.14382733     0.37760
C1234       C  0.46661128  0.20642957  0.07202014     0.37750
C1235       C  0.41318281  0.19069018  0.01807597     0.36180
C1236       C  0.43939074  0.17892063  0.15782504     0.36180
N1237       N  0.41746172  0.20229376  0.98935971    -0.38640
N1238       N  0.44922006  0.19620493  0.18217733    -0.38640
N1239       N  0.47790459  0.23548056  0.07524888    -0.38090
N1240       N  0.34155370  0.17780895  0.16670128    -0.38090
C1241       C  0.50534746  0.03098619  0.14298727    -0.04760
C1242       C  0.48769585  0.00969445  0.17066135    -0.01870
C1243       C  0.49029343  0.97066251  0.16990330     0.03120
C1244       C  0.50081397  0.95197118  0.13758277    -0.04750
C1245       C  0.50600390  0.97416895  0.10738901    -0.01860
C1246       C  0.51611650  0.01046144  0.11187499     0.03110
C1247       C  0.46724231  0.02513957  0.20059289     0.37760
C1248       C  0.49637422  0.96256632  0.07140459     0.37750
C1249       C  0.54874951  0.01765886  0.09222528     0.36180
C1250       C  0.48419533  0.95115600  0.20321179     0.36180
N1251       N  0.57623895  0.01490198  0.07714255    -0.38640
N1252       N  0.47951295  0.93786394  0.23115666    -0.38640
N1253       N  0.48679228  0.95653388  0.04219392    -0.38090
N1254       N  0.44985839  0.03327889  0.22575777    -0.38090
C1255       C  0.51064390  0.11974130  0.96624353    -0.04760
C1256       C  0.51533553  0.08944337  0.98905598    -0.01870
C1257       C  0.52515768  0.09407298  0.02589518     0.03120
C1258       C  0.51875327  0.12688873  0.04449890    -0.04750
C1259       C  0.51917994  0.15798791  0.02137828    -0.01860
C1260       C  0.51359032  0.15434482  0.98286913     0.03110
C1261       C  0.51462098  0.05309077  0.97387263     0.37760
C1262       C  0.53435283  0.19175654  0.03377545     0.37750
C1263       C  0.51240142  0.18619601  0.96021878     0.36180
C1264       C  0.55990670  0.07902917  0.03428809     0.36180
N1265       N  0.51149910  0.21180230  0.94233506    -0.38640
N1266       N  0.59008890  0.07135439  0.03825092    -0.38640
N1267       N  0.54718532  0.21947006  0.04077896    -0.38090
N1268       N  0.51394119  0.02413962  0.96153342    -0.38090
C1269       C  0.91320908  0.83913546  0.56551611    -0.04760
C1270       C  0.88313337  0.81977644  0.58064624    -0.01870
C1271       C  0.88710627  0.80192085  0.61474570     0.03120
C1272       C  0.92252865  0.79396393  0.62727024    -0.04750
C1273       C  0.95102406  0.80334351  0.60424561    -0.01860
C1274       C  0.94615414  0.83512947  0.58417292     0.03110
C1275       C  0.85071645  0.81294791  0.56011726     0.37760
C1276       C  0.96899234  0.77304866  0.58622462     0.37750
C1277       C  0.95912720  0.86716580  0.60251164     0.36180
C1278       C  0.85571947  0.78858229  0.63417045     0.36180
N1279       N  0.96981201  0.89194231  0.61859564    -0.38640
N1280       N  0.83055836  0.77809285  0.64975777    -0.38640
N1281       N  0.98312642  0.74870504  0.57166987    -0.38090
N1282       N  0.82479909  0.80454373  0.54472347    -0.38090
C1283       C  0.86101528  0.90317021  0.56271357    -0.04760
C1284       C  0.87602402  0.92172942  0.59288219    -0.01870
C1285       C  0.85639729  0.92519885  0.62601099     0.03120
C1286       C  0.81970273  0.91486424  0.62804799    -0.04750
C1287       C  0.80304401  0.90066266  0.59693437    -0.01860
C1288       C  0.82344439  0.89444288  0.56470958     0.03110
C1289       C  0.90781890  0.94383998  0.58850798     0.37760
C1290       C  0.76457527  0.89212714  0.59825712     0.37750
C1291       C  0.80429869  0.87985817  0.53393291     0.36180
C1292       C  0.87354009  0.94105779  0.65768748     0.36180
N1293       N  0.78587112  0.86845586  0.51135904    -0.38640
N1294       N  0.88723348  0.95332442  0.68311152    -0.38640
N1295       N  0.73391458  0.88544780  0.59930073    -0.38090
N1296       N  0.93117697  0.96454379  0.58730942    -0.38090
C1297       C  0.82731998  0.90123483  0.36330498    -0.04760
C1298       C  0.81799558  0.87553811  0.38947980    -0.01870
C1299       C  0.83838614  0.87244375  0.42170595     0.03120
C1300       C  0.86739093  0.89655098  0.42940584    -0.04750
C1301       C  0.87532983  0.92352761  0.40322759    -0.01860
C1302       C  0.85665466  0.92454685  0.36976786     0.03110
C1303       C  0.78699805  0.85226939  0.38321607     0.37760
C1304       C  0.90157106  0.95148466  0.40989047     0.37750
C1305       C  0.86671716  0.95069396  0.34225541     0.36180
C1306       C  0.82874883  0.84384424  0.44632611     0.36180
N1307       N  0.87472248  0.97140322  0.32025739    -0.38640
N1308       N  0.81922047  0.81994500  0.46399109    -0.38640
N1309       N  0.92195270  0.97502035  0.41229047    -0.38090
N1310       N  0.76217151  0.83387463  0.37829341    -0.38090
C1311       C  0.92406847  0.84052149  0.43271310    -0.04760
C1312       C  0.94014019  0.85482270  0.40098975    -0.01870
C1313       C  0.93882750  0.83549593  0.36784761     0.03120
C1314       C  0.92481680  0.80015011  0.36663403    -0.04750
C1315       C  0.90961396  0.78518146  0.39819917    -0.01860
C1316       C  0.90834491  0.80556349  0.43084191     0.03110
C1317       C  0.95905421  0.88892990  0.40177946     0.37760
C1318       C  0.89479669  0.74886990  0.39689055     0.37750
C1319       C  0.89255777  0.78940551  0.46299358     0.36180
C1320       C  0.95167515  0.85224035  0.33476094     0.36180
N1321       N  0.88097169  0.77547480  0.48853334    -0.38640
N1322       N  0.96127394  0.86594830  0.30831476    -0.38640
N1323       N  0.88289287  0.71994049  0.39582847    -0.38090
N1324       N  0.97476961  0.91583617  0.39970359    -0.38090
C1325       C  0.91623784  0.14793222  0.56027608    -0.04760
C1326       C  0.94106547  0.17666896  0.55963552    -0.01870
C1327       C  0.95712400  0.18756323  0.59283102     0.03120
C1328       C  0.94061749  0.17744782  0.62651417    -0.04750
C1329       C  0.90619898  0.16047598  0.62436471    -0.01860
C1330       C  0.89217780  0.15139831  0.59008824     0.03110
C1331       C  0.93020809  0.20770247  0.53848741     0.37760
C1332       C  0.88252438  0.15697650  0.65569129     0.37750
C1333       C  0.85561320  0.16409468  0.58294466     0.36180
C1334       C  0.98287939  0.21712699  0.59123175     0.36180
N1335       N  0.82688395  0.17608085  0.57808139    -0.38640
N1336       N  0.00222642  0.24161890  0.58915827    -0.38640
N1337       N  0.86322793  0.15443612  0.68046215    -0.38090
N1338       N  0.92212587  0.23499895  0.52538464    -0.38090
C1339       C  0.86557926  0.08246121  0.56798045    -0.04760
C1340       C  0.82765327  0.08958835  0.57035320    -0.01870
C1341       C  0.80847925  0.08303347  0.60275153     0.03120
C1342       C  0.82700571  0.07011297  0.63331064    -0.04750
C1343       C  0.86478126  0.06315714  0.63129344    -0.01860
C1344       C  0.88406082  0.06944803  0.59878529     0.03110
C1345       C  0.80876141  0.10668890  0.54037134     0.37760
C1346       C  0.88397679  0.04936158  0.66262243     0.37750
C1347       C  0.92318606  0.06539398  0.59853737     0.36180
C1348       C  0.76973775  0.09074608  0.60497992     0.36180
N1349       N  0.95446116  0.06282289  0.60033918    -0.38640
N1350       N  0.73883770  0.09676983  0.60674847    -0.38640
N1351       N  0.89949406  0.03852663  0.68753610    -0.38090
N1352       N  0.79386461  0.12111523  0.51694922    -0.38090
C1353       C  0.92349519  0.17466032  0.36566833    -0.04760
C1354       C  0.92522025  0.13638911  0.36440127    -0.01870
C1355       C  0.91660160  0.11618435  0.39541245     0.03120
C1356       C  0.90894728  0.13414930  0.42877782    -0.04750
C1357       C  0.90540394  0.17243291  0.42922706    -0.01860
C1358       C  0.91341285  0.19262244  0.39807236     0.03110
C1359       C  0.93693557  0.11742198  0.33154875     0.37760
C1360       C  0.88748617  0.19041762  0.45970131     0.37750
C1361       C  0.90980169  0.23187831  0.39896896     0.36180
C1362       C  0.91124821  0.07757217  0.39102481     0.36180
N1363       N  0.90702865  0.26317663  0.39964694    -0.38640
N1364       N  0.90544328  0.04722464  0.38560097    -0.38640
N1365       N  0.87043319  0.20405205  0.48264859    -0.38090
N1366       N  0.94649446  0.10184819  0.30571901    -0.38090
C1367       C  0.84365172  0.08409779  0.44081121    -0.04760
C1368       C  0.82262306  0.05279695  0.43954085    -0.01870
C1369       C  0.81651548  0.03747563  0.40535731     0.03120
C1370       C  0.81307647  0.06078994  0.37497721    -0.04750
C1371       C  0.82052417  0.09818335  0.38056433    -0.01860
C1372       C  0.83361821  0.11017284  0.41464102     0.03110
C1373       C  0.78861783  0.05610770  0.45930035     0.37760
C1374       C  0.81328725  0.12464532  0.35260185     0.37750
C1375       C  0.82442251  0.14666888  0.42620151     0.36180
C1376       C  0.80655897  0.99974610  0.40467103     0.36180
N1377       N  0.81413353  0.17543510  0.43422207    -0.38640
N1378       N  0.79765323  0.96978056  0.40562853    -0.38640
N1379       N  0.80780156  0.14591315  0.33035799    -0.38090
N1380       N  0.76023809  0.05935059  0.47282636    -0.38090
C1381       C  0.87274733  0.02888743  0.50486218    -0.04760
C1382       C  0.84096058  0.00739539  0.50788218    -0.01870
C1383       C  0.84207624  0.96962500  0.49993669     0.03120
C1384       C  0.87553423  0.95102361  0.49597201    -0.04750
C1385       C  0.90745539  0.97191368  0.49670499    -0.01860
C1386       C  0.90608589  0.00952041  0.50393143     0.03110
C1387       C  0.80872328  0.02071510  0.52635338     0.37760
C1388       C  0.94187416  0.95614370  0.48525300     0.37750
C1389       C  0.93879455  0.02589860  0.51745744     0.36180
C1390       C  0.80839681  0.95171806  0.49154563     0.36180
N1391       N  0.96574089  0.03647964  0.52929214    -0.38640
N1392       N  0.78066812  0.93966539  0.48343055    -0.38640
N1393       N  0.96927051  0.94554362  0.47350657    -0.38090
N1394       N  0.78207785  0.02824502  0.54169085    -0.38090
C1395       C  0.15262187  0.09507934  0.57373190    -0.04760
C1396       C  0.13184218  0.11189531  0.60724106    -0.01870
C1397       C  0.15210876  0.09412682  0.63832747     0.03120
C1398       C  0.19080492  0.08821610  0.63780514    -0.04750
C1399       C  0.20988778  0.09766626  0.60657147    -0.01860
C1400       C  0.19094652  0.09979288  0.57388398     0.03110
C1401       C  0.07793481  0.16418633  0.60603688     0.37760
C1402       C  0.24918582  0.10056474  0.60716448     0.37750
C1403       C  0.21072741  0.10937384  0.54129429     0.36180
C1404       C  0.13412942  0.07497367  0.66758780     0.36180
N1405       N  0.22713955  0.11880460  0.51624682    -0.38640
N1406       N  0.12023354  0.05929395  0.69085563    -0.38040
N1407       N  0.28053041  0.10286059  0.60762598    -0.38090
N1408       N  0.05529243  0.18618174  0.60579402    -0.38090
C1409       C  0.11332843  0.15229554  0.65446765    -0.04760
C1410       C  0.07989474  0.11650316  0.64423953    -0.01870
C1411       C  0.07065047  0.10329702  0.59731208     0.03120
C1412       C  0.09350930  0.12662874  0.55989466    -0.04750
C1413       C  0.12832448  0.16210502  0.57020348    -0.01860
C1414       C  0.13814649  0.17358219  0.61744453     0.03110
C1415       C  0.05507544  0.10512857  0.67225886     0.37760
C1416       C  0.15365828  0.17469430  0.54342753     0.37750
C1417       C  0.16326951  0.20210261  0.62545584     0.36180
C1418       C  0.04899540  0.07193510  0.58981444     0.36180
N1419       N  0.18346689  0.22508693  0.63195880    -0.38640
N1420       N  0.03241152  0.04615860  0.58354555    -0.38640
N1421       N  0.17605404  0.18455750  0.52374282    -0.38090
N1422       N  0.03512628  0.09613997  0.69480513    -0.38090
C1423       C  0.08238802  0.17271149  0.36910712    -0.04760
C1424       C  0.07814675  0.13478242  0.36979058    -0.01870
C1425       C  0.08532337  0.11519445  0.40193127     0.03120
C1426       C  0.10063323  0.13273461  0.43267600    -0.04750
C1427       C  0.10177900  0.17140380  0.43224113    -0.01860
C1428       C  0.09307312  0.19095281  0.40069836     0.03110
C1429       C  0.06416642  0.11613335  0.33802064     0.37760
C1430       C  0.11238766  0.19274555  0.46330603     0.37750
C1431       C  0.09591474  0.23031433  0.40045783     0.36180
C1432       C  0.07187780  0.07859504  0.40407873     0.36180
N1433       N  0.09811005  0.26160873  0.40026162    -0.38640
N1434       N  0.05951648  0.04983788  0.40374557    -0.38640
N1435       N  0.12032710  0.21409327  0.48492923    -0.38090
N1436       N  0.05295142  0.10118464  0.31277417    -0.38090
C1437       C  0.17753746  0.09339937  0.44188753    -0.04760
C1438       C  0.17823547  0.12035535  0.41509918    -0.01870
C1439       C  0.19096814  0.11195035  0.37972994     0.03120
C1440       C  0.21245239  0.08031679  0.37361278    -0.04750
C1441       C  0.22407156  0.06134488  0.40501039    -0.01860
C1442       C  0.20687063  0.06792552  0.43909780     0.03110
C1443       C  0.18211398  0.15748846  0.42724543     0.37760
C1444       C  0.25542031  0.03710539  0.40362743     0.37750
C1445       C  0.22361580  0.05218551  0.47074497     0.36180
C1446       C  0.18539779  0.13857791  0.35165823     0.36180
N1447       N  0.23942500  0.03959937  0.49464105    -0.38640
N1448       N  0.18052625  0.16047490  0.32988202    -0.38640
N1449       N  0.28091687  0.01845916  0.40367174    -0.38090
N1450       N  0.18762760  0.18712761  0.43609112    -0.38090
C1451       C  0.04655080  0.11883190  0.49267420    -0.04760
C1452       C  0.02785284  0.15228166  0.49831434    -0.01870
C1453       C  0.98987186  0.15545354  0.49174122     0.03120
C1454       C  0.96804744  0.12430845  0.48711034    -0.04750
C1455       C  0.98758624  0.09225186  0.47696707    -0.01860
C1456       C  0.02541055  0.08863222  0.48318092     0.03110
C1457       C  0.04581007  0.18330490  0.51389388     0.37760
C1458       C  0.97105978  0.06399291  0.45565519     0.37750
C1459       C  0.04192790  0.05268221  0.48292431     0.36180
C1460       C  0.97737708  0.18980359  0.47789575     0.36180
N1461       N  0.05472255  0.02388978  0.48337472    -0.38640
N1462       N  0.96978742  0.21756910  0.46550829    -0.38640
N1463       N  0.96101815  0.03976258  0.43846913    -0.38090
N1464       N  0.05797138  0.20877203  0.52758576    -0.38090
C1465       C  0.10714705  0.84397000  0.57155257    -0.04760
C1466       C  0.09375318  0.86218004  0.60336581    -0.01870
C1467       C  0.08971041  0.84314147  0.63626813     0.03120
C1468       C  0.09654057  0.80548108  0.63706336    -0.04750
C1469       C  0.11127086  0.78767163  0.60659805    -0.01860
C1470       C  0.11611949  0.80648257  0.57394546     0.03110
C1471       C  0.07425071  0.89635372  0.60029391     0.37760
C1472       C  0.12080419  0.74937091  0.60886503     0.37750
C1473       C  0.12764963  0.78537602  0.54276619     0.36180
C1474       C  0.07322996  0.86115431  0.66765321     0.36180
N1475       N  0.13619431  0.76518031  0.52007151    -0.38640
N1476       N  0.05965182  0.87563576  0.69233656    -0.38640
N1477       N  0.12851198  0.71894885  0.61086245    -0.38090
N1478       N  0.05610678  0.92211704  0.59890841    -0.38090
C1479       C  0.15792498  0.90186063  0.56565709    -0.04760
C1480       C  0.18599322  0.87763857  0.57631897    -0.01870
C1481       C  0.20489329  0.88373661  0.60877019     0.03120
C1482       C  0.19593798  0.91392131  0.63069987    -0.04750
C1483       C  0.16785871  0.93790353  0.62052967    -0.01860
C1484       C  0.14918636  0.93235255  0.58780168     0.03110
C1485       C  0.19597922  0.84668156  0.55361632     0.37760
C1486       C  0.15742314  0.96752527  0.64460102     0.37750
C1487       C  0.12198852  0.95864218  0.57652258     0.36180
C1488       C  0.23382231  0.85914527  0.61952496     0.36180
N1489       N  0.10070038  0.97997978  0.56745427    -0.38640
N1490       N  0.25690811  0.83959061  0.62816974    -0.38640
N1491       N  0.14921270  0.99067475  0.66447605    -0.38090
N1492       N  0.20437416  0.82196411  0.53572610    -0.38090
C1493       C  0.08304393  0.79864621  0.37230336    -0.04760
C1494       C  0.06782664  0.83303479  0.38084480    -0.01870
C1495       C  0.07416972  0.84910276  0.41502786     0.03120
C1496       C  0.10087647  0.83449517  0.43791412    -0.04750
C1497       C  0.11752508  0.80084495  0.42857596    -0.01860
C1498       C  0.10633879  0.78171945  0.39724432     0.03110
C1499       C  0.04891060  0.85350902  0.35346813     0.37760
C1500       C  0.15013180  0.78892796  0.44691528     0.37750
C1501       C  0.12116228  0.74590890  0.38913530     0.36180
C1502       C  0.05371158  0.88070213  0.42719415     0.36180
N1503       N  0.13272381  0.71725465  0.38259448    -0.38640
N1504       N  0.03812195  0.90549179  0.43920252    -0.38640
N1505       N  0.17756034  0.77986361  0.45924173    -0.38090
N1506       N  0.03549286  0.87086610  0.33121280    -0.38090
C1507       C  0.20173955  0.91596133  0.37408279    -0.04760
C1508       C  0.16580634  0.90288651  0.37288412    -0.01870
C1509       C  0.15560925  0.87798987  0.39902915     0.03120
C1510       C  0.16667440  0.88549587  0.43487152    -0.04750
C1511       C  0.20293525  0.89801569  0.43803443    -0.01860
C1512       C  0.22087441  0.91264241  0.40723294     0.03110
C1513       C  0.14270943  0.90687428  0.34161624     0.37760
C1514       C  0.22399372  0.88903350  0.46963995     0.37750
C1515       C  0.25885801  0.92243219  0.40947113     0.36180
C1516       C  0.16681134  0.84273159  0.38500408     0.36180
N1517       N  0.28921826  0.93009196  0.41145461    -0.38640
N1518       N  0.17776889  0.81578819  0.37247197    -0.38640
N1519       N  0.24262933  0.88069614  0.49332365    -0.38090
N1520       N  0.12321878  0.90978492  0.31732891    -0.38090
C1521       C  0.15477034  0.94767606  0.49340465    -0.04760
C1522       C  0.13663906  0.96962450  0.46763104    -0.01870
C1523       C  0.14041781  0.00821771  0.46770481     0.03120
C1524       C  0.15372466  0.02772758  0.49887364    -0.04750
C1525       C  0.17232875  0.00497286  0.52400327    -0.01860
C1526       C  0.17796778  0.96714132  0.51696413     0.03110
C1527       C  0.11617467  0.95350593  0.43836593     0.37760
C1528       C  0.18737283  0.01813020  0.55744179     0.37750
C1529       C  0.20996501  0.95000145  0.53216580     0.36180
C1530       C  0.13641585  0.02496074  0.43267588     0.36180
N1531       N  0.23617604  0.93850716  0.54509898    -0.38640
N1532       N  0.13611325  0.03496138  0.40300854    -0.38640
N1533       N  0.20045471  0.02305736  0.58542373    -0.38090
N1534       N  0.10051885  0.94331893  0.41323594    -0.38090
C1535       C  0.05267147  0.84017141  0.50686812    -0.04760
C1536       C  0.03290911  0.81374462  0.48682776    -0.01870
C1537       C  0.99342441  0.81536313  0.48681288     0.03120
C1538       C  0.97425693  0.84608946  0.50288528    -0.04750
C1539       C  0.99717363  0.86949185  0.52311010    -0.01860
C1540       C  0.03143777  0.85743933  0.53330902     0.03110
C1541       C  0.05130248  0.78059555  0.47565352     0.37760
C1542       C  0.98781533  0.90490693  0.53644520     0.37750
C1543       C  0.02942096  0.83662329  0.56603273     0.36180
C1544       C  0.97476072  0.78301702  0.47555226     0.36180
N1545       N  0.02864520  0.81916673  0.59188382    -0.38640
N1546       N  0.96307680  0.75515751  0.46714054    -0.38640
N1547       N  0.98500717  0.93397783  0.54813160    -0.38090
N1548       N  0.06473522  0.75305107  0.46785992    -0.38090
loop_ 
_geom_bond_atom_site_label_1 
_geom_bond_atom_site_label_2 
_geom_bond_distance 
_geom_bond_site_symmetry_2 
_ccdc_geom_bond_type 
C1            C2   1.425       .  A
C1            C6   1.426       .  A
C1         C1465   1.516       .  S
C2            C3   1.436       .  A
C2         C1535   1.549       .  S
C3            C4   1.455       .  A
C3         C1496   1.490       .  S
C4            C5   1.440       .  A
C4         C1510   1.534       .  S
C5            C6   1.429       .  A
C5         C1521   1.558       .  S
C6         C1479   1.490       .  S
C7            C8   1.387       .  A
C7           C12   1.390       .  A
C7         C1412   1.384       .  S
C8            C9   1.456       .  A
C8         C1395   1.590       .  S
C9           C10   1.461       .  A
C9         C1524   1.577       .  S
C10          C11   1.474       .  A
C10        C1437   1.547       .  S
C11          C12   1.420       .  A
C11        C1426   1.523       .  S
C12        C1451   1.526       .  S
C13          C14   1.433       .  A
C13          C18   1.442       .  A
C13        C1356   1.497       .  S
C14          C15   1.448       .  A
C14        C1454   1.552       .  S
C15          C16   1.450       .  A
C15        C1325   1.547       .  S
C16          C17   1.417       .  A
C16        C1339   1.494       .  S
C17          C18   1.432       .  A
C17        C1381   1.537       .  S
C18        C1367   1.532       .  S
C19          C20   1.437       .  A
C19          C24   1.434       .  A
C19        C1311   1.501       .  S
C20          C21   1.452       .  A
C20        C1538   1.552       .  S
C21          C22   1.446       .  A
C21        C1269   1.530       .  S
C22          C23   1.431       .  A
C22        C1283   1.523       .  S
C23          C24   1.419       .  A
C23        C1384   1.514       .  S
C24        C1300   1.524       .  S
C25          C26   1.430       .  A
C25          C30   1.443       .  A
C25        C1230   1.521       .  S
C26          C27   1.445       .  A
C26        C1258   1.566       .  S
C27          C28   1.463       .  A
C27        C1202   1.501       .  S
C28          C29   1.440       .  A
C28        C1185   1.549       .  S
C29          C30   1.417       .  A
C29        C1241   1.557       .  S
C30        C1216   1.485       .  S
C31          C32   1.422       .  A
C31          C36   1.449       .  A
C31        C1157   1.529       .  S
C32          C33   1.428       .  A
C32        C1255   1.533       .  S
C33          C34   1.442       .  A
C33        C1129   1.516       .  S
C34          C35   1.443       .  A
C34        C1118   1.524       .  S
C35          C36   1.464       .  A
C35        C1174   1.571       .  S
C36        C1146   1.519       .  S
C37          C38   1.416       .  A
C37          C42   1.432       .  A
C37        C1076   1.503       .  S
C38          C39   1.444       .  A
C38        C1244   1.531       .  S
C39          C40   1.454       .  A
C39        C1048   1.541       .  S
C40          C41   1.442       .  A
C40        C1062   1.524       .  S
C41          C42   1.444       .  A
C41        C1101   1.557       .  S
C42        C1087   1.520       .  S
C43          C44   1.411       .  A
C43          C48   1.417       .  A
C43        C1020   1.491       .  S
C44          C45   1.448       .  A
C44        C1171   1.560       .  S
C45          C46   1.499       .  A
C45         C992   1.560       .  S
C46          C47   1.465       .  A
C46        C1003   1.550       .  S
C47          C48   1.413       .  A
C47        C1104   1.560       .  S
C48        C1031   1.495       .  S
C49          C50   1.454       .  A
C49          C54   1.485       .  A
C49         C933   1.526       .  S
C50          C51   1.425       .  A
C50         C975   1.581       .  S
C51          C52   1.437       .  A
C51         C905   1.526       .  S
C52          C53   1.431       .  A
C52         C919   1.481       .  S
C53          C54   1.449       .  A
C53         C961   1.568       .  S
C54         C947   1.551       .  S
C55          C56   1.440       .  A
C55          C60   1.455       .  A
C55         C849   1.525       .  S
C56          C57   1.429       .  A
C56         C964   1.529       .  S
C57          C58   1.437       .  A
C57         C877   1.532       .  S
C58          C59   1.445       .  A
C58         C863   1.520       .  S
C59          C60   1.449       .  A
C59         C891   1.544       .  S
C60         C838   1.541       .  S
C61          C62   1.448       .  A
C61          C66   1.466       .  A
C61         C768   1.510       .  S
C62          C63   1.444       .  A
C62         C894   1.566       .  S
C63          C64   1.429       .  A
C63         C793   1.505       .  S
C64          C65   1.403       .  A
C64         C810   1.489       .  S
C65          C66   1.436       .  A
C65         C821   1.545       .  S
C66         C782   1.541       .  S
C67          C68   1.457       .  A
C67          C72   1.456       .  A
C67         C709   1.548       .  S
C68          C69   1.434       .  A
C68         C978   1.531       .  S
C69          C70   1.435       .  A
C69         C737   1.537       .  S
C70          C71   1.438       .  A
C70         C751   1.514       .  S
C71          C72   1.443       .  A
C71         C824   1.539       .  S
C72         C723   1.544       .  S
C73         C110   1.466       .  S
C73         C600   1.467       .  S
C73          N91   1.345       .  A
N74          N91   1.316       .  A
N74          N96   1.318       .  A
N74        Co111   2.072       .  S
C75         C113   1.444       .  S
C75         N100   1.319       .  A
C75         H120   1.079       .  S
H76         C117   1.081       .  S
C77          C81   1.483       .  S
C77         N101   1.355       .  A
C77         H106   1.081       .  S
Co78         N96   2.090       .  S
Co78         N86   2.046   1_565  S
Co78        N118   2.058       .  S
Co78         N94   2.085   1_565  S
Co78       Cl122   2.499       .  S
N79         C117   1.319       .  A
N79          N86   1.317       .  A
N79         Co80   2.064       .  S
Co80         N83   2.073       .  S
Co80        N100   2.048       .  S
Co80         N87   2.091       .  S
Co80       Cl122   2.401   1_545  S
C81        C1398   1.521       .  S
C81         N119   1.346       .  A
N82          N89   1.322       .  A
N82         N112   1.322       .  A
N82        Co115   2.080       .  S
N83         N101   1.316       .  A
N83         N119   1.329       .  A
N84         C113   1.355       .  A
N84          N94   1.330       .  A
H85         C110   1.081       .  S
N86         N107   1.324       .  A
N87         N105   1.316       .  A
N87          N92   1.328       .  A
C88         C116   1.466       .  S
C88        C1143   1.496       .  S
C88          N92   1.350       .  A
N89         C104   1.339       .  A
N89        Co111   2.082       .  S
C90          C93   1.456       .  S
C90         N118   1.343       .  A
C90         H124   1.082       .  S
C93         C240   1.457       .  S
C93         N114   1.350       .  A
N94         N100   1.317       .  A
N95         C121   1.335       .  A
N95          N97   1.320       .  A
N95        Co111   2.057       .  S
N96         C110   1.350       .  A
N97         N125   1.327       .  A
N97        Co115   2.115       .  S
H98         C121   1.081       .  S
H99         C116   1.081       .  S
N101       Co115   2.141   1_545  S
N102        N114   1.318       .  A
N102        N118   1.318       .  A
N102       Co111   2.097       .  S
C103        C117   1.451       .  S
C103        C126   1.438       .  S
C103        N107   1.346       .  A
C104        C123   1.453       .  S
C104        H108   1.081       .  S
N105        C116   1.347       .  A
N105       Co115   2.101   1_545  S
C109        C121   1.445       .  S
C109       C1017   1.475       .  S
C109        N125   1.356       .  A
Co111      Cl122   2.406       .  S
N112        C123   1.347       .  A
C113        C421   1.457       .  S
Co115      Cl122   2.472       .  S
C123       C1482   1.469       .  S
C126        C163   1.458       .  S
C126        N144   1.334       .  A
N127        N144   1.304       .  A
N127        N149   1.317       .  A
N127       Co164   2.055       .  S
C128        C166   1.460       .  S
C128        N153   1.336       .  A
C128        H173   1.082       .  S
H129        C170   1.082       .  S
C130        C134   1.475       .  S
C130        N154   1.368       .  A
C130        H159   1.076   1_655  S
Co131       N149   2.047       .  S
Co131       N139   2.109   1_455  S
Co131       N171   2.109       .  S
Co131       N147   2.055   1_455  S
Co131      Cl175   2.494       .  S
N132        C170   1.329       .  A
N132        N139   1.319       .  A
N132       Co133   2.064       .  S
Co133       N136   2.103       .  S
Co133       N153   2.097       .  S
Co133       N140   2.075       .  S
Co133      Cl175   2.419   1_655  S
C134       C1328   1.507       .  S
C134        N172   1.360       .  A
N135        N142   1.316       .  A
N135        N165   1.330       .  A
N135       Co168   2.142       .  S
N136        N154   1.347       .  A
N136        N172   1.320       .  A
N137        C166   1.345       .  A
N137        N147   1.323       .  A
H138        C163   1.081       .  S
N139        N160   1.333       .  A
N140        N158   1.319       .  A
N140        N145   1.327       .  A
C141        C169   1.476       .  S
C141        C740   1.503       .  S
C141        N145   1.349       .  A
N142        C157   1.349       .  A
N142       Co164   2.069       .  S
C143        C146   1.474       .  S
C143        N171   1.352       .  A
C143        H177   1.081       .  S
C146        C431   1.462       .  S
C146        N167   1.338       .  A
N147        N153   1.321       .  A
N148        C174   1.344       .  A
N148        N150   1.316       .  A
N148       Co164   2.077       .  S
N149        C163   1.346       .  A
N150        N178   1.325       .  A
N150       Co168   2.087       .  S
H151        C174   1.081       .  S
H152        C169   1.076       .  S
N154       Co168   2.075   1_655  S
N155        N167   1.310       .  A
N155        N171   1.319       .  A
N155       Co164   2.044       .  S
C156        C170   1.452       .  S
C156        C603   1.470       .  S
C156        N160   1.358       .  A
C157        C176   1.445       .  S
C157        H161   1.079       .  S
N158        C169   1.342       .  A
N158       Co168   2.121   1_655  S
C162        C174   1.458       .  S
C162        C936   1.484       .  S
C162        N178   1.351       .  A
Co164      Cl175   2.412       .  S
N165        C176   1.363       .  A
C166        C512   1.454       .  S
Co168      Cl175   2.460       .  S
C176       C1409   1.493       .  S
C179        C216   1.464       .  S
C179        C388   1.460       .  S
C179        N197   1.343       .  A
N180        N197   1.316       .  A
N180        N202   1.320       .  A
N180       Co217   2.070       .  S
C181        C219   1.451       .  S
C181        N206   1.328       .  A
C181        H226   1.082       .  S
H182        C223   1.082       .  S
C183        C187   1.453       .  S
C183        N207   1.337       .  A
C183        H212   1.081       .  S
Co184       N202   2.091       .  S
Co184       N192   2.079   1_455  S
Co184       N224   2.085       .  S
Co184       N200   2.094   1_455  S
Co184      Cl228   2.495       .  S
N185        C223   1.323       .  A
N185        N192   1.319       .  A
N185       Co186   2.063       .  S
Co186       N189   2.101       .  S
Co186       N206   2.073       .  S
Co186       N193   2.083       .  S
Co186      Cl228   2.399   1_655  S
C187       C1314   1.479       .  S
C187        N225   1.354       .  A
N188        N195   1.319       .  A
N188        N218   1.325       .  A
N188       Co221   2.074       .  S
N189        N207   1.316       .  A
N189        N225   1.327       .  A
N190        C219   1.356       .  A
N190        N200   1.333       .  A
H191        C216   1.082       .  S
N192        N213   1.328       .  A
N193        N211   1.317       .  A
N193        N198   1.327       .  A
C194        C222   1.446       .  S
C194        C765   1.475       .  S
C194        N198   1.350       .  A
N195        C210   1.345       .  A
N195       Co217   2.098       .  S
C196        C199   1.463       .  S
C196        N224   1.347       .  A
C196        H230   1.082       .  S
C199        C268   1.463       .  S
C199        N220   1.344       .  A
N200        N206   1.320       .  A
N201        C227   1.344       .  A
N201        N203   1.317       .  A
N201       Co217   2.086       .  S
N202        C216   1.347       .  A
N203        N231   1.321       .  A
N203       Co221   2.062       .  S
H204        C227   1.079       .  S
H205        C222   1.081       .  S
N207       Co221   2.058   1_655  S
N208        N220   1.318       .  A
N208        N224   1.320       .  A
N208       Co217   2.084       .  S
C209        C223   1.451       .  S
C209        C452   1.452       .  S
C209        N213   1.352       .  A
C210        C229   1.458       .  S
C210        H214   1.081       .  S
N211        C222   1.333       .  A
N211       Co221   2.060   1_655  S
C215        C227   1.463       .  S
C215        C835   1.485       .  S
C215        N231   1.341       .  A
Co217      Cl228   2.410       .  S
N218        C229   1.346       .  A
C219        C676   1.468       .  S
Co221      Cl228   2.477       .  S
C229       C1493   1.480       .  S
C232        C269   1.461       .  S
C232       C1090   1.497       .  S
C232        N250   1.352       .  A
N233        N250   1.330       .  A
N233        N255   1.319       .  A
N233       Co270   2.105       .  S
C234        C272   1.452       .  S
C234        N259   1.335       .  A
C234        H279   1.080       .  S
H235        C276   1.081       .  S
C236        C240   1.470       .  S
C236        N260   1.349       .  A
C236        H265   1.081       .  S
Co237       N255   2.093   1_556  S
Co237       N245   2.090       .  S
Co237       N277   2.097   1_556  S
Co237       N253   2.076       .  S
Co237      Cl281   2.475       .  S
N238        C276   1.336       .  A
N238        N245   1.317       .  A
N238       Co239   2.067       .  S
Co239       N242   2.054       .  S
Co239       N259   2.057       .  S
Co239       N246   2.070       .  S
Co239      Cl281   2.410       .  S
C240        N278   1.338       .  A
N241        N248   1.322       .  A
N241        N271   1.332       .  A
N241       Co274   2.100       .  S
N242        N260   1.320       .  A
N242        N278   1.314       .  A
N243        C272   1.346       .  A
N243        N253   1.320       .  A
H244        C269   1.081       .  S
N245        N266   1.325       .  A
N246        N264   1.319       .  A
N246        N251   1.315       .  A
C247        C275   1.469       .  S
C247        C586   1.468       .  S
C247        N251   1.343       .  A
N248        C263   1.332       .  A
N248       Co270   2.083       .  S
C249        C252   1.457       .  S
C249        N277   1.347       .  A
C249        H283   1.080       .  S
C252        C852   1.503       .  S
C252        N273   1.357       .  A
N253        N259   1.317       .  A
N254        C280   1.333       .  A
N254        N256   1.322       .  A
N254       Co270   2.078       .  S
N255        C269   1.346       .  A
N256        N284   1.328       .  A
N256       Co274   2.093       .  S
H257        C280   1.082       .  S
H258        C275   1.081       .  S
N260       Co274   2.102   1_556  S
N261        N273   1.332       .  A
N261        N277   1.319       .  A
N261       Co270   2.112       .  S
C262        C276   1.454       .  S
C262       C1034   1.476       .  S
C262        N266   1.353       .  A
C263        C282   1.454       .  S
C263        H267   1.081       .  S
N264        C275   1.353       .  A
N264       Co274   2.096   1_556  S
C268        C280   1.453       .  S
C268        N284   1.352       .  A
Co270      Cl281   2.416   1_554  S
N271        C282   1.355       .  A
C272        C922   1.467       .  S
Co274      Cl281   2.495   1_554  S
C282        C374   1.473       .  S
C285        C322   1.457       .  S
C285       C1423   1.484       .  S
C285        N303   1.347       .  A
N286        N303   1.326       .  A
N286        N308   1.318       .  A
N286       Co323   2.078       .  S
C287        C325   1.450       .  S
C287        N312   1.334       .  A
C287        H332   1.081       .  S
H288        C329   1.081       .  S
C289        C293   1.469       .  S
C289        N313   1.350       .  A
C289        H318   1.081       .  S
Co290       N308   2.084       .  S
Co290       N298   2.081   1_455  S
Co290       N330   2.092       .  S
Co290       N306   2.077   1_455  S
Co290      Cl334   2.474       .  S
N291        C329   1.336       .  A
N291        N298   1.318       .  A
N291       Co292   2.063       .  S
Co292       N295   2.066       .  S
Co292       N312   2.061       .  S
Co292       N299   2.068       .  S
Co292      Cl334   2.407   1_655  S
C293        C494   1.463       .  S
C293        N331   1.340       .  A
N294        N301   1.320       .  A
N294        N324   1.331       .  A
N294       Co327   2.096       .  S
N295        N313   1.320       .  A
N295        N331   1.315       .  A
N296        C325   1.348       .  A
N296        N306   1.323       .  A
H297        C322   1.081       .  S
N298        N319   1.323       .  A
N299        N317   1.319       .  A
N299        N304   1.315       .  A
C300        C328   1.469       .  S
C300        C533   1.465       .  S
C300        N304   1.342       .  A
N301        C316   1.329       .  A
N301       Co323   2.071       .  S
C302        C305   1.462       .  S
C302        N330   1.346       .  A
C302        H336   1.081       .  S
C305        C866   1.493       .  S
C305        N326   1.351       .  A
N306        N312   1.318       .  A
N307        C333   1.327       .  A
N307        N309   1.320       .  A
N307       Co323   2.057       .  S
N308        C322   1.341       .  A
N309        N337   1.327       .  A
N309       Co327   2.091       .  S
H310        C333   1.082       .  S
H311        C328   1.081       .  S
N313       Co327   2.096   1_655  S
N314        N326   1.327       .  A
N314        N330   1.317       .  A
N314       Co323   2.094       .  S
C315        C329   1.452       .  S
C315       C1353   1.473       .  S
C315        N319   1.348       .  A
C316        C335   1.449       .  S
C316        H320   1.082       .  S
N317        C328   1.351       .  A
N317       Co327   2.096   1_655  S
C321        C333   1.446       .  S
C321        C411   1.452       .  S
C321        N337   1.353       .  A
Co323      Cl334   2.408       .  S
N324        C335   1.355       .  A
C325        C796   1.467       .  S
Co327      Cl334   2.495       .  S
C335        C346   1.464       .  S
C338        C375   1.453       .  S
C338       C1507   1.484       .  S
C338        N356   1.352       .  A
N339        N356   1.324       .  A
N339        N361   1.318       .  A
N339       Co376   2.086       .  S
C340        C378   1.450       .  S
C340        N365   1.339       .  A
C340        H385   1.081       .  S
H341        C382   1.078       .  S
C342        C346   1.466       .  S
C342        N366   1.349       .  A
C342        H371   1.081       .  S
Co343       N361   2.075       .  S
Co343       N351   2.080   1_565  S
Co343       N383   2.081       .  S
Co343       N359   2.082   1_565  S
Co343      Cl387   2.478       .  S
N344        C382   1.346       .  A
N344        N351   1.314       .  A
N344       Co345   2.093       .  S
Co345       N348   2.069       .  S
Co345       N365   2.075       .  S
Co345       N352   2.075       .  S
Co345      Cl387   2.407   1_545  S
C346        N384   1.343       .  A
N347        N354   1.320       .  A
N347        N377   1.328       .  A
N347       Co380   2.084       .  S
N348        N366   1.321       .  A
N348        N384   1.315       .  A
N349        C378   1.351       .  A
N349        N359   1.325       .  A
H350        C375   1.075       .  S
N351        N372   1.321       .  A
N352        N370   1.320       .  A
N352        N357   1.314       .  A
C353        C381   1.465       .  S
C353        C391   1.457       .  S
C353        N357   1.342       .  A
N354        C369   1.329       .  A
N354       Co376   2.069       .  S
C355        C358   1.458       .  S
C355        N383   1.341       .  A
C355        H389   1.081       .  S
C358       C1073   1.477       .  S
C358        N379   1.347       .  A
N359        N365   1.318       .  A
N360        C386   1.331       .  A
N360        N362   1.321       .  A
N360       Co376   2.074       .  S
N361        C375   1.339       .  A
N362        N390   1.332       .  A
N362       Co380   2.106       .  S
H363        C386   1.081       .  S
H364        C381   1.081       .  S
N366       Co380   2.096   1_545  S
N367        N379   1.324       .  A
N367        N383   1.318       .  A
N367       Co376   2.078       .  S
C368        C382   1.476       .  S
C368       C1440   1.511       .  S
C368        N372   1.350       .  A
C369        C388   1.452       .  S
C369        H373   1.082       .  S
N370        C381   1.348       .  A
N370       Co380   2.083   1_545  S
C374        C386   1.452       .  S
C374        N390   1.357       .  A
Co376      Cl387   2.411       .  S
N377        C388   1.352       .  A
C378       C1213   1.473       .  S
Co380      Cl387   2.492       .  S
C391        C428   1.464       .  S
C391        N409   1.343       .  A
N392        N409   1.315       .  A
N392        N414   1.318       .  A
N392       Co429   2.071       .  S
C393        C431   1.457       .  S
C393        N418   1.329       .  A
C393        H438   1.082       .  S
H394        C435   1.080       .  S
C395        C399   1.456       .  S
C395        N419   1.334       .  A
C395        H424   1.073       .  S
Co396       N414   2.081       .  S
Co396       N404   2.072   1_554  S
Co396       N436   2.065       .  S
Co396       N412   2.079   1_554  S
Co396      Cl440   2.498       .  S
N397        C435   1.322       .  A
N397        N404   1.318       .  A
N397       Co398   2.063       .  S
Co398       N401   2.103       .  S
Co398       N418   2.077       .  S
Co398       N405   2.094       .  S
Co398      Cl440   2.394   1_556  S
C399       C1160   1.497       .  S
C399        N437   1.354       .  A
N400        N407   1.317       .  A
N400        N430   1.324       .  A
N400       Co433   2.073       .  S
N401        N419   1.315       .  A
N401        N437   1.331       .  A
N402        C431   1.352       .  A
N402        N412   1.330       .  A
H403        C428   1.081       .  S
N404        N425   1.329       .  A
N405        N423   1.315       .  A
N405        N410   1.326       .  A
C406        C434   1.460       .  S
C406        C950   1.494       .  S
C406        N410   1.354       .  A
N407        C422   1.339       .  A
N407       Co429   2.086       .  S
C408        C411   1.456       .  S
C408        N436   1.343       .  A
C408        H442   1.081       .  S
C411        N432   1.345       .  A
N412        N418   1.318       .  A
N413        C439   1.343       .  A
N413        N415   1.317       .  A
N413       Co429   2.086       .  S
N414        C428   1.347       .  A
N415        N443   1.323       .  A
N415       Co433   2.078       .  S
H416        C439   1.080       .  S
H417        C434   1.078       .  S
N419       Co433   2.069   1_556  S
N420        N432   1.316       .  A
N420        N436   1.319       .  A
N420       Co429   2.080       .  S
C421        C435   1.450       .  S
C421        N425   1.352       .  A
C422        C441   1.462       .  S
C422        H426   1.080       .  S
N423        C434   1.335       .  A
N423       Co433   2.061   1_556  S
C427        C439   1.456       .  S
C427        C880   1.480       .  S
C427        N443   1.347       .  A
Co429      Cl440   2.399       .  S
N430        C441   1.348       .  A
Co433      Cl440   2.479       .  S
C441       C1227   1.486       .  S
C444        C481   1.460       .  S
C444       C1370   1.494       .  S
C444        N462   1.354       .  A
N445        N462   1.326       .  A
N445        N467   1.316       .  A
N445       Co482   2.087       .  S
C446        C484   1.458       .  S
C446        N471   1.345       .  A
C446        H491   1.081       .  S
H447        C488   1.081       .  S
C448        C452   1.466       .  S
C448        N472   1.350       .  A
C448        H477   1.081       .  S
Co449       N467   2.069   1_565  S
Co449       N457   2.081       .  S
Co449       N489   2.060   1_565  S
Co449       N465   2.095       .  S
Co449      Cl493   2.465       .  S
N450        C488   1.345       .  A
N450        N457   1.316       .  A
N450       Co451   2.089       .  S
Co451       N454   2.052       .  S
Co451       N471   2.077       .  S
Co451       N458   2.064       .  S
Co451      Cl493   2.406       .  S
C452        N490   1.337       .  A
N453        N460   1.320       .  A
N453        N483   1.328       .  A
N453       Co486   2.079   1_545  S
N454        N472   1.318       .  A
N454        N490   1.309       .  A
N455        C484   1.355       .  A
N455        N465   1.324       .  A
H456        C481   1.078   1_565  S
N457        N478   1.325       .  A
N458        N476   1.320       .  A
N458        N463   1.312       .  A
C459        C487   1.464       .  S
C459        C656   1.450       .  S
C459        N463   1.340       .  A
N460        C475   1.333       .  A
N460       Co482   2.084       .  S
C461        C464   1.463       .  S
C461        N489   1.330       .  A
C461        H495   1.074   1_545  S
C464       C1188   1.505       .  S
C464        N485   1.358       .  A
N465        N471   1.315       .  A
N466        C492   1.332       .  A
N466        N468   1.322       .  A
N466       Co482   2.084       .  S
N467        C481   1.334       .  A
N468        N496   1.331       .  A
N468       Co486   2.096   1_545  S
H469        C492   1.081       .  S
H470        C487   1.082       .  S
N472       Co486   2.083       .  S
N473        N485   1.327       .  A
N473        N489   1.316       .  A
N473       Co482   2.102       .  S
C474        C488   1.459       .  S
C474       C1297   1.485       .  S
C474        N478   1.349       .  A
C475        C494   1.457       .  S
C475        H479   1.082       .  S
N476        C487   1.347       .  A
N476       Co486   2.082       .  S
C480        C492   1.457       .  S
C480        C547   1.474       .  S
C480        N496   1.354       .  A
Co482      Cl493   2.414   1_545  S
N483        C494   1.351       .  A
C484       C1045   1.487       .  S
Co486      Cl493   2.496       .  S
C497        C534   1.455       .  S
C497       C1199   1.475       .  S
C497        N515   1.346       .  A
N498        N515   1.322       .  A
N498        N520   1.319       .  A
N498       Co535   2.073       .  S
C499        C537   1.458       .  S
C499        N524   1.342       .  A
C499        H544   1.081       .  S
H500        C541   1.081       .  S
C501        C505   1.463       .  S
C501        N525   1.347       .  A
C501        H530   1.081       .  S
Co502       N520   2.081   1_556  S
Co502       N510   2.099       .  S
Co502       N542   2.084   1_556  S
Co502       N518   2.105       .  S
Co502      Cl546   2.474   1_556  S
N503        C541   1.341       .  A
N503        N510   1.317       .  A
N503       Co504   2.076       .  S
Co504       N507   2.076       .  S
Co504       N524   2.088       .  S
Co504       N511   2.061       .  S
Co504      Cl546   2.415   1_556  S
C505        C623   1.457       .  S
C505        N543   1.344       .  A
N506        N513   1.319       .  A
N506        N536   1.334       .  A
N506       Co539   2.106       .  S
N507        N525   1.321       .  A
N507        N543   1.315       .  A
N508        C537   1.357       .  A
N508        N518   1.330       .  A
H509        C534   1.081       .  S
N510        N531   1.328       .  A
N511        N529   1.321       .  A
N511        N516   1.316       .  A
C512        C540   1.465       .  S
C512        N516   1.339       .  A
N513        C528   1.329       .  A
N513       Co535   2.064       .  S
C514        C517   1.460       .  S
C514        N542   1.340       .  A
C514        H548   1.081       .  S
C517        C807   1.465       .  S
C517        N538   1.342       .  A
N518        N524   1.318       .  A
N519        C545   1.329       .  A
N519        N521   1.319       .  A
N519       Co535   2.071       .  S
N520        C534   1.340       .  A
N521        N549   1.331       .  A
N521       Co539   2.094       .  S
H522        C545   1.082       .  S
H523        C540   1.081       .  S
N525       Co539   2.086   1_556  S
N526        N538   1.320       .  A
N526        N542   1.318       .  A
N526       Co535   2.058       .  S
C527        C541   1.456       .  S
C527       C1132   1.486       .  S
C527        N531   1.352       .  A
C528        C547   1.449       .  S
C528        H532   1.081       .  S
N529        C540   1.345       .  A
N529       Co539   2.094   1_556  S
C533        C545   1.453       .  S
C533        N549   1.355       .  A
Co535      Cl546   2.408       .  S
N536        C547   1.359       .  A
C537        C754   1.495       .  S
Co539      Cl546   2.494       .  S
C550        C587   1.462       .  S
C550       C1468   1.472       .  S
C550        N568   1.339       .  A
N551        N568   1.321       .  A
N551        N573   1.321       .  A
N551       Co588   2.063       .  S
C552        C590   1.461       .  S
C552        N577   1.345       .  A
C552        H597   1.080       .  S
H553        C594   1.081       .  S
C554        C558   1.466       .  S
C554        N578   1.347       .  A
C554        H583   1.082       .  S
Co555       N573   2.091       .  S
Co555       N563   2.097   1_455  S
Co555       N595   2.061       .  S
Co555       N571   2.111   1_455  S
Co555      Cl599   2.474       .  S
N556        C594   1.347       .  A
N556        N563   1.316       .  A
N556       Co557   2.094       .  S
Co557       N560   2.074       .  S
Co557       N577   2.095       .  S
Co557       N564   2.068       .  S
Co557      Cl599   2.413   1_655  S
C558        C633   1.460       .  S
C558        N596   1.342       .  A
N559        N566   1.319       .  A
N559        N589   1.332       .  A
N559       Co592   2.095       .  S
N560        N578   1.323       .  A
N560        N596   1.317       .  A
N561        C590   1.355       .  A
N561        N571   1.331       .  A
H562        C587   1.081       .  S
N563        N584   1.327       .  A
N564        N582   1.319       .  A
N564        N569   1.313       .  A
C565        C593   1.459       .  S
C565        C696   1.448       .  S
C565        N569   1.341       .  A
N566        C581   1.328       .  A
N566       Co588   2.069       .  S
C567        C570   1.461       .  S
C567        N595   1.331       .  A
C567        H601   1.077       .  S
C570        C908   1.490       .  S
C570        N591   1.352       .  A
N571        N577   1.319       .  A
N572        C598   1.327       .  A
N572        N574   1.318       .  A
N572       Co588   2.061       .  S
N573        C587   1.342       .  A
N574        N602   1.333       .  A
N574       Co592   2.103       .  S
H575        C598   1.082       .  S
H576        C593   1.082       .  S
N578       Co592   2.100   1_655  S
N579        N591   1.324       .  A
N579        N595   1.313       .  A
N579       Co588   2.072       .  S
C580        C594   1.465       .  S
C580       C1272   1.496       .  S
C580        N584   1.356       .  A
C581        C600   1.448       .  S
C581        H585   1.082       .  S
N582        C593   1.343       .  A
N582       Co592   2.070   1_655  S
C586        C598   1.451       .  S
C586        N602   1.358       .  A
Co588      Cl599   2.401       .  S
N589        C600   1.357       .  A
C590        C712   1.507       .  S
Co592      Cl599   2.498       .  S
C603        C640   1.470       .  S
C603        N621   1.343       .  A
N604        N621   1.315       .  A
N604        N626   1.318       .  A
N604       Co641   2.069       .  S
C605        C643   1.458       .  S
C605        N630   1.331       .  A
C605        H650   1.079       .  S
H606        C647   1.082       .  S
C607        C611   1.455       .  S
C607        N631   1.342       .  A
C607        H636   1.081       .  S
Co608       N626   2.098   1_565  S
Co608       N616   2.080       .  S
Co608       N648   2.086   1_565  S
Co608       N624   2.095       .  S
Co608      Cl652   2.493       .  S
N609        C647   1.333       .  A
N609        N616   1.322       .  A
N609       Co610   2.086       .  S
Co610       N613   2.095       .  S
Co610       N630   2.082       .  S
Co610       N617   2.120       .  S
Co610      Cl652   2.423       .  S
C611       C1286   1.488       .  S
C611        N649   1.352       .  A
N612        N619   1.317       .  A
N612        N642   1.323       .  A
N612       Co645   2.077   1_545  S
N613        N631   1.319       .  A
N613        N649   1.329       .  A
N614        C643   1.353       .  A
N614        N624   1.330       .  A
H615        C640   1.081       .  S
N616        N637   1.327       .  A
N617        N635   1.317       .  A
N617        N622   1.332       .  A
C618        C646   1.468       .  S
C618        C989   1.515       .  S
C618        N622   1.362       .  A
N619        C634   1.338       .  A
N619       Co641   2.070       .  S
C620        C623   1.464       .  S
C620        N648   1.348       .  A
C620        H654   1.081       .  S
C623        N644   1.343       .  A
N624        N630   1.322       .  A
N625        C651   1.340       .  A
N625        N627   1.317       .  A
N625       Co641   2.077       .  S
N626        C640   1.353       .  A
N627        N655   1.325       .  A
N627       Co645   2.092   1_545  S
H628        C651   1.081       .  S
H629        C646   1.075       .  S
N631       Co645   2.086       .  S
N632        N644   1.314       .  A
N632        N648   1.320       .  A
N632       Co641   2.071       .  S
C633        C647   1.455       .  S
C633        N637   1.350       .  A
C634        C653   1.454       .  S
C634        H638   1.079       .  S
N635        C646   1.337       .  A
N635       Co645   2.079       .  S
C639        C651   1.459       .  S
C639       C1115   1.489       .  S
C639        N655   1.355       .  A
Co641      Cl652   2.414   1_545  S
N642        C653   1.346       .  A
C643        C686   1.472       .  S
Co645      Cl652   2.471       .  S
C653       C1342   1.475       .  S
C656        C693   1.461       .  S
C656        N674   1.343       .  A
N657        N674   1.313       .  A
N657        N679   1.319       .  A
N657       Co694   2.076       .  S
C658        C696   1.450       .  S
C658        N683   1.328       .  A
C658        H703   1.082       .  S
H659        C700   1.077       .  S
C660        C664   1.464       .  S
C660        N684   1.337       .  A
C660        H689   1.073       .  S
Co661       N679   2.068   1_556  S
Co661       N669   2.107       .  S
Co661       N701   2.105   1_556  S
Co661       N677   2.074       .  S
Co661      Cl705   2.496       .  S
N662        C700   1.327       .  A
N662        N669   1.318       .  A
N662       Co663   2.058       .  S
Co663       N666   2.097       .  S
Co663       N683   2.070       .  S
Co663       N670   2.087       .  S
Co663      Cl705   2.408       .  S
C664       C1006   1.510       .  S
C664        N702   1.358       .  A
N665        N672   1.317       .  A
N665        N695   1.325       .  A
N665       Co698   2.094       .  S
N666        N684   1.313       .  A
N666        N702   1.327       .  A
N667        C696   1.350       .  A
N667        N677   1.325       .  A
H668        C693   1.081       .  S
N669        N690   1.333       .  A
N670        N688   1.318       .  A
N670        N675   1.330       .  A
C671        C699   1.464       .  S
C671        C726   1.496       .  S
C671        N675   1.348       .  A
N672        C687   1.342       .  A
N672       Co694   2.076       .  S
C673        C676   1.472       .  S
C673        N701   1.353       .  A
C673        H707   1.081       .  S
C676        N697   1.341       .  A
N677        N683   1.320       .  A
N678        C704   1.343       .  A
N678        N680   1.315       .  A
N678       Co694   2.087       .  S
N679        C693   1.346       .  A
N680        N708   1.320       .  A
N680       Co698   2.076       .  S
H681        C704   1.078       .  S
H682        C699   1.077       .  S
N684       Co698   2.071   1_556  S
N685        N697   1.313       .  A
N685        N701   1.319       .  A
N685       Co694   2.061       .  S
C686        C700   1.447       .  S
C686        N690   1.359       .  A
C687        C706   1.456       .  S
C687        H691   1.080       .  S
N688        C699   1.342       .  A
N688       Co698   2.098   1_556  S
C692        C704   1.470       .  S
C692        C779   1.505       .  S
C692        N708   1.351       .  A
Co694      Cl705   2.401   1_554  S
N695        C706   1.350       .  A
Co698      Cl705   2.474   1_554  S
C706       C1059   1.489       .  S
C709        C710   1.432       .  A
C709        C714   1.431       .  A
C710        C711   1.425       .  A
C710        C715   1.443       .  S
C711        C712   1.409       .  A
C711        C718   1.454       .  S
C712        C713   1.403       .  A
C713        C714   1.423       .  A
C713        C716   1.454       .  S
C714        C717   1.440       .  S
C715        N722   1.157       .  T
C716        N721   1.157       .  T
C717        N719   1.155       .  T
C718        N720   1.157       .  T
C723        C724   1.427       .  A
C723        C728   1.421       .  A
C724        C725   1.427       .  A
C724        C729   1.444       .  S
C725        C726   1.412       .  A
C725        C732   1.449       .  S
C726        C727   1.405       .  A
C727        C728   1.400       .  A
C727        C730   1.450       .  S
C728        C731   1.437       .  S
C729        N736   1.157       .  T
C730        N735   1.157   1_556  T
C731        N733   1.156       .  T
C732        N734   1.157       .  T
C737        C738   1.428       .  A
C737        C742   1.425       .  A
C738        C739   1.423       .  A
C738        C743   1.443       .  S
C739        C740   1.405       .  A
C739        C746   1.451       .  S
C740        C741   1.409       .  A
C741        C742   1.421       .  A
C741        C744   1.453       .  S
C742        C745   1.441       .  S
C743        N750   1.157       .  T
C744        N749   1.157       .  T
C745        N747   1.157   1_655  T
C746        N748   1.157       .  T
C751        C752   1.416       .  A
C751        C756   1.422       .  A
C752        C753   1.415       .  A
C752        C757   1.444       .  S
C753        C754   1.411       .  A
C753        C760   1.449       .  S
C754        C755   1.408       .  A
C755        C756   1.418       .  A
C755        C758   1.450       .  S
C756        C759   1.450       .  S
C757        N764   1.157       .  T
C758        N763   1.157       .  T
C759        N761   1.157       .  T
C760        N762   1.157       .  T
C765        C766   1.400       .  A
C765        C770   1.408       .  A
C766        C767   1.405       .  A
C766        C771   1.458       .  S
C767        C768   1.422       .  A
C767        C774   1.440       .  S
C768        C769   1.425       .  A
C769        C770   1.415       .  A
C769        C772   1.448       .  S
C770        C773   1.451       .  S
C771        N778   1.157       .  T
C772        N777   1.157       .  T
C773        N775   1.157       .  T
C774        N776   1.155       .  T
C779        C780   1.420       .  A
C779        C784   1.424       .  A
C780        C781   1.411       .  A
C780        C785   1.448       .  S
C781        C782   1.409       .  A
C781        C788   1.446       .  S
C782        C783   1.411       .  A
C783        C784   1.417       .  A
C783        C786   1.442       .  S
C784        C787   1.452       .  S
C785        N792   1.158       .  T
C786        N791   1.156       .  T
C787        N789   1.158       .  T
C788        N790   1.157       .  T
C793        C794   1.425       .  A
C793        C798   1.419       .  A
C794        C795   1.408       .  A
C794        C799   1.449       .  S
C795        C796   1.406       .  A
C795        C802   1.454       .  S
C796        C797   1.398       .  A
C797        C798   1.405       .  A
C797        C800   1.453       .  S
C798        C801   1.441       .  S
C799        N806   1.158       .  T
C800        N805   1.157       .  T
C801        N803   1.156       .  T
C802        N804   1.157       .  T
C807        C808   1.405       .  A
C807        C812   1.405       .  A
C808        C809   1.409       .  A
C808        C813   1.451       .  S
C809        C810   1.417       .  A
C809        C816   1.448       .  S
C810        C811   1.407       .  A
C811        C812   1.398       .  A
C811        C814   1.443       .  S
C812        C815   1.447       .  S
C813        N820   1.157       .  T
C814        N819   1.155       .  T
C815        N817   1.156       .  T
C816        N818   1.157       .  T
C821        C822   1.410       .  A
C821        C826   1.432       .  A
C822        C823   1.416   1_554  A
C822        C827   1.439       .  S
C823        C824   1.420       .  A
C823        C830   1.443       .  S
C824        C825   1.425       .  A
C825        C826   1.434   1_556  A
C825        C828   1.448       .  S
C826        C829   1.447       .  S
C827        N834   1.151       .  T
C828        N833   1.157       .  T
C829        N831   1.158       .  T
C830        N832   1.156       .  T
C835        C836   1.411       .  A
C835        C840   1.413       .  A
C836        C837   1.394       .  A
C836        C841   1.448       .  S
C837        C838   1.416       .  A
C837        C844   1.450       .  S
C838        C839   1.419       .  A
C839        C840   1.416       .  A
C839        C842   1.439       .  S
C840        C843   1.452       .  S
C841        N848   1.157       .  T
C842        N847   1.156       .  T
C843        N845   1.157       .  T
C844        N846   1.159       .  T
C849        C850   1.419       .  A
C849        C854   1.424       .  A
C850        C851   1.423       .  A
C850        C855   1.445       .  S
C851        C852   1.413       .  A
C851        C858   1.447       .  S
C852        C853   1.407       .  A
C853        C854   1.420       .  A
C853        C856   1.451       .  S
C854        C857   1.444       .  S
C855        N862   1.156       .  T
C856        N861   1.157       .  T
C857        N859   1.156       .  T
C858        N860   1.156       .  T
C863        C864   1.420       .  A
C863        C868   1.420       .  A
C864        C865   1.416       .  A
C864        C869   1.443       .  S
C865        C866   1.406       .  A
C865        C872   1.451       .  S
C866        C867   1.409       .  A
C867        C868   1.418       .  A
C867        C870   1.451       .  S
C868        C871   1.445       .  S
C869        N876   1.156       .  T
C870        N875   1.157       .  T
C871        N873   1.157       .  T
C872        N874   1.157       .  T
C877        C878   1.424       .  A
C877        C882   1.429       .  A
C878        C879   1.413       .  A
C878        C883   1.434       .  S
C879        C880   1.395       .  A
C879        C886   1.455       .  S
C880        C881   1.404       .  A
C881        C882   1.419       .  A
C881        C884   1.456       .  S
C882        C885   1.439       .  S
C883        N890   1.152       .  T
C884        N889   1.157       .  T
C885        N887   1.157       .  T
C886        N888   1.157       .  T
C891        C892   1.404       .  A
C891        C896   1.442       .  A
C892        C893   1.413   1_455  A
C892        C897   1.437       .  S
C893        C894   1.403       .  A
C893        C900   1.443   1_655  S
C894        C895   1.454       .  A
C895        C896   1.468   1_655  A
C895        C898   1.440       .  S
C896        C899   1.443       .  S
C897        N904   1.156       .  T
C898        N903   1.157       .  T
C899        N901   1.157       .  T
C900        N902   1.157       .  T
C905        C906   1.383       .  A
C905        C910   1.419       .  A
C906        C907   1.394       .  A
C906        C911   1.449       .  S
C907        C908   1.419       .  A
C907        C914   1.439       .  S
C908        C909   1.422       .  A
C909        C910   1.416       .  A
C909        C912   1.449       .  S
C910        C913   1.445       .  S
C911        N918   1.157       .  T
C912        N917   1.157       .  T
C913        N915   1.158       .  T
C914        N916   1.156       .  T
C919        C920   1.415       .  A
C919        C924   1.416       .  A
C920        C921   1.406       .  A
C920        C925   1.450       .  S
C921        C922   1.412       .  A
C921        C928   1.451       .  S
C922        C923   1.404       .  A
C923        C924   1.404       .  A
C923        C926   1.453       .  S
C924        C927   1.454       .  S
C925        N932   1.157       .  T
C926        N931   1.157       .  T
C927        N929   1.156       .  T
C928        N930   1.157       .  T
C933        C934   1.395       .  A
C933        C938   1.411       .  A
C934        C935   1.389       .  A
C934        C939   1.458       .  S
C935        C936   1.422       .  A
C935        C942   1.431       .  S
C936        C937   1.427       .  A
C937        C938   1.428       .  A
C937        C940   1.446       .  S
C938        C941   1.449       .  S
C939        N946   1.158       .  T
C940        N945   1.157       .  T
C941        N943   1.158       .  T
C942        N944   1.151       .  T
C947        C948   1.410       .  A
C947        C952   1.407       .  A
C948        C949   1.403       .  A
C948        C953   1.448       .  S
C949        C950   1.423       .  A
C949        C956   1.445       .  S
C950        C951   1.419       .  A
C951        C952   1.413       .  A
C951        C954   1.449       .  S
C952        C955   1.449       .  S
C953        N960   1.157       .  T
C954        N959   1.157       .  T
C955        N957   1.158       .  T
C956        N958   1.156   1_556  T
C961        C962   1.446       .  A
C961        C966   1.423       .  A
C962        C963   1.430   1_556  A
C962        C967   1.439       .  S
C963        C964   1.404       .  A
C963        C970   1.451       .  S
C964        C965   1.416       .  A
C965        C966   1.423   1_554  A
C965        C968   1.447       .  S
C966        C969   1.450       .  S
C967        N974   1.158       .  T
C968        N973   1.156       .  T
C969        N971   1.157       .  T
C970        N972   1.157       .  T
C975        C976   1.424       .  A
C975        C980   1.450       .  A
C976        C977   1.420       .  A
C976        C981   1.440       .  S
C977        C978   1.410   1_455  A
C977        C984   1.447   1_455  S
C978        C979   1.400       .  A
C979        C980   1.428   1_655  A
C979        C982   1.449       .  S
C980        C983   1.439       .  S
C981        N988   1.156       .  T
C982        N987   1.157       .  T
C983        N985   1.159       .  T
C984        N986   1.158       .  T
C989        C990   1.423       .  A
C989        C994   1.425       .  A
C990        C991   1.425       .  A
C990        C995   1.446       .  S
C991        C992   1.402       .  A
C991        C998   1.450       .  S
C992        C993   1.416       .  A
C993        C994   1.418       .  A
C993        C996   1.448       .  S
C994        C997   1.449       .  S
C995       N1002   1.157       .  T
C996       N1001   1.157       .  T
C997        N999   1.158       .  T
C998       N1000   1.158       .  T
C1003      C1004   1.417       .  A
C1003      C1008   1.399       .  A
C1004      C1005   1.416       .  A
C1004      C1009   1.445       .  S
C1005      C1006   1.429       .  A
C1005      C1012   1.443       .  S
C1006      C1007   1.419       .  A
C1007      C1008   1.397       .  A
C1007      C1010   1.440       .  S
C1008      C1011   1.454       .  S
C1009      N1016   1.157       .  T
C1010      N1015   1.155       .  T
C1011      N1013   1.158       .  T
C1012      N1014   1.156   1_556  T
C1017      C1018   1.407       .  A
C1017      C1022   1.408       .  A
C1018      C1019   1.411       .  A
C1018      C1023   1.450       .  S
C1019      C1020   1.416       .  A
C1019      C1026   1.447       .  S
C1020      C1021   1.406       .  A
C1021      C1022   1.404       .  A
C1021      C1024   1.442       .  S
C1022      C1025   1.444       .  S
C1023      N1030   1.157       .  T
C1024      N1029   1.155       .  T
C1025      N1027   1.155       .  T
C1026      N1028   1.157       .  T
C1031      C1032   1.412       .  A
C1031      C1036   1.420       .  A
C1032      C1033   1.403       .  A
C1032      C1037   1.443       .  S
C1033      C1034   1.407       .  A
C1033      C1040   1.450       .  S
C1034      C1035   1.406       .  A
C1035      C1036   1.412       .  A
C1035      C1038   1.450       .  S
C1036      C1039   1.450       .  S
C1037      N1044   1.156       .  T
C1038      N1043   1.157       .  T
C1039      N1041   1.157       .  T
C1040      N1042   1.156       .  T
C1045      C1046   1.396       .  A
C1045      C1050   1.406       .  A
C1046      C1047   1.403       .  A
C1046      C1051   1.456       .  S
C1047      C1048   1.419       .  A
C1047      C1054   1.419       .  S
C1048      C1049   1.430       .  A
C1049      C1050   1.425       .  A
C1049      C1052   1.444       .  S
C1050      C1053   1.449       .  S
C1051      N1058   1.157       .  T
C1052      N1057   1.157       .  T
C1053      N1055   1.157       .  T
C1054      N1056   1.150       .  T
C1059      C1060   1.411       .  A
C1059      C1064   1.401       .  A
C1060      C1061   1.416       .  A
C1060      C1065   1.451       .  S
C1061      C1062   1.424       .  A
C1061      C1068   1.447       .  S
C1062      C1063   1.426       .  A
C1063      C1064   1.412       .  A
C1063      C1066   1.442       .  S
C1064      C1067   1.455       .  S
C1065      N1072   1.157       .  T
C1066      N1071   1.155       .  T
C1067      N1069   1.157       .  T
C1068      N1070   1.158       .  T
C1073      C1074   1.408       .  A
C1073      C1078   1.403       .  A
C1074      C1075   1.410       .  A
C1074      C1079   1.451       .  S
C1075      C1076   1.415       .  A
C1075      C1082   1.445       .  S
C1076      C1077   1.420       .  A
C1077      C1078   1.410       .  A
C1077      C1080   1.448       .  S
C1078      C1081   1.452       .  S
C1079      N1086   1.157       .  T
C1080      N1085   1.156       .  T
C1081      N1083   1.157       .  T
C1082      N1084   1.156       .  T
C1087      C1088   1.425       .  A
C1087      C1092   1.411       .  A
C1088      C1089   1.419       .  A
C1088      C1093   1.444       .  S
C1089      C1090   1.406       .  A
C1089      C1096   1.451       .  S
C1090      C1091   1.409       .  A
C1091      C1092   1.416       .  A
C1091      C1094   1.443       .  S
C1092      C1095   1.439       .  S
C1093      N1100   1.157       .  T
C1094      N1099   1.155       .  T
C1095      N1097   1.154       .  T
C1096      N1098   1.157       .  T
C1101      C1102   1.425       .  A
C1101      C1106   1.425       .  A
C1102      C1103   1.439   1_554  A
C1102      C1107   1.448       .  S
C1103      C1104   1.434       .  A
C1103      C1110   1.445       .  S
C1104      C1105   1.408       .  A
C1105      C1106   1.422   1_556  A
C1105      C1108   1.445       .  S
C1106      C1109   1.442       .  S
C1107      N1114   1.157       .  T
C1108      N1113   1.155       .  T
C1109      N1111   1.156       .  T
C1110      N1112   1.157       .  T
C1115      C1116   1.409       .  A
C1115      C1120   1.408       .  A
C1116      C1117   1.420       .  A
C1116      C1121   1.453       .  S
C1117      C1118   1.426       .  A
C1117      C1124   1.441       .  S
C1118      C1119   1.416       .  A
C1119      C1120   1.400       .  A
C1119      C1122   1.445       .  S
C1120      C1123   1.447       .  S
C1121      N1128   1.157       .  T
C1122      N1127   1.158       .  T
C1123      N1125   1.156       .  T
C1124      N1126   1.156       .  T
C1129      C1130   1.414       .  A
C1129      C1134   1.419       .  A
C1130      C1131   1.414       .  A
C1130      C1135   1.437       .  S
C1131      C1132   1.409       .  A
C1131      C1138   1.450       .  S
C1132      C1133   1.405       .  A
C1133      C1134   1.414       .  A
C1133      C1136   1.451       .  S
C1134      C1137   1.445       .  S
C1135      N1142   1.155       .  T
C1136      N1141   1.157       .  T
C1137      N1139   1.156       .  T
C1138      N1140   1.156       .  T
C1143      C1144   1.405       .  A
C1143      C1148   1.409       .  A
C1144      C1145   1.419       .  A
C1144      C1149   1.451       .  S
C1145      C1146   1.425       .  A
C1145      C1152   1.444       .  S
C1146      C1147   1.418       .  A
C1147      C1148   1.417       .  A
C1147      C1150   1.444       .  S
C1148      C1151   1.447       .  S
C1149      N1156   1.157       .  T
C1150      N1155   1.157       .  T
C1151      N1153   1.157       .  T
C1152      N1154   1.157       .  T
C1157      C1158   1.419       .  A
C1157      C1162   1.419       .  A
C1158      C1159   1.415       .  A
C1158      C1163   1.440       .  S
C1159      C1160   1.403       .  A
C1159      C1166   1.452       .  S
C1160      C1161   1.415       .  A
C1161      C1162   1.423       .  A
C1161      C1164   1.451       .  S
C1162      C1165   1.445       .  S
C1163      N1170   1.155       .  T
C1164      N1169   1.157       .  T
C1165      N1167   1.157       .  T
C1166      N1168   1.157       .  T
C1171      C1172   1.423       .  A
C1171      C1176   1.443       .  A
C1172      C1173   1.409   1_565  A
C1172      C1177   1.452       .  S
C1173      C1174   1.420       .  A
C1173      C1180   1.444       .  S
C1174      C1175   1.418       .  A
C1175      C1176   1.439   1_545  A
C1175      C1178   1.444       .  S
C1176      C1179   1.446       .  S
C1177      N1184   1.158       .  T
C1178      N1183   1.157       .  T
C1179      N1181   1.157       .  T
C1180      N1182   1.157       .  T
C1185      C1186   1.412       .  A
C1185      C1190   1.409       .  A
C1186      C1187   1.410       .  A
C1186      C1191   1.444       .  S
C1187      C1188   1.418       .  A
C1187      C1194   1.449       .  S
C1188      C1189   1.423       .  A
C1189      C1190   1.419       .  A
C1189      C1192   1.451       .  S
C1190      C1193   1.439       .  S
C1191      N1198   1.157       .  T
C1192      N1197   1.158       .  T
C1193      N1195   1.156       .  T
C1194      N1196   1.158       .  T
C1199      C1200   1.410       .  A
C1199      C1204   1.405       .  A
C1200      C1201   1.406       .  A
C1200      C1205   1.449       .  S
C1201      C1202   1.419       .  A
C1201      C1208   1.451       .  S
C1202      C1203   1.419       .  A
C1203      C1204   1.407       .  A
C1203      C1206   1.452       .  S
C1204      C1207   1.452       .  S
C1205      N1212   1.156       .  T
C1206      N1211   1.156       .  T
C1207      N1209   1.157       .  T
C1208      N1210   1.157       .  T
C1213      C1214   1.406       .  A
C1213      C1218   1.413       .  A
C1214      C1215   1.406       .  A
C1214      C1219   1.451       .  S
C1215      C1216   1.416       .  A
C1215      C1222   1.452       .  S
C1216      C1217   1.408       .  A
C1217      C1218   1.409       .  A
C1217      C1220   1.449       .  S
C1218      C1221   1.449       .  S
C1219      N1226   1.157       .  T
C1220      N1225   1.157       .  T
C1221      N1223   1.157       .  T
C1222      N1224   1.158       .  T
C1227      C1228   1.423       .  A
C1227      C1232   1.428       .  A
C1228      C1229   1.406       .  A
C1228      C1233   1.450       .  S
C1229      C1230   1.406       .  A
C1229      C1236   1.445       .  S
C1230      C1231   1.393       .  A
C1231      C1232   1.397       .  A
C1231      C1234   1.448       .  S
C1232      C1235   1.441       .  S
C1233      N1240   1.158       .  T
C1234      N1239   1.158       .  T
C1235      N1237   1.155   1_554  T
C1236      N1238   1.158       .  T
C1241      C1242   1.447       .  A
C1241      C1246   1.419       .  A
C1242      C1243   1.441   1_545  A
C1242      C1247   1.439       .  S
C1243      C1244   1.419       .  A
C1243      C1250   1.446       .  S
C1244      C1245   1.401       .  A
C1245      C1246   1.401   1_565  A
C1245      C1248   1.437       .  S
C1246      C1249   1.425       .  S
C1247      N1254   1.157       .  T
C1248      N1253   1.155       .  T
C1249      N1251   1.153       .  T
C1250      N1252   1.157       .  T
C1255      C1256   1.415       .  A
C1255      C1260   1.415       .  A
C1256      C1257   1.416   1_556  A
C1256      C1261   1.447       .  S
C1257      C1258   1.401       .  A
C1257      C1264   1.426       .  S
C1258      C1259   1.435       .  A
C1259      C1260   1.440   1_554  A
C1259      C1262   1.441       .  S
C1260      C1263   1.448       .  S
C1261      N1268   1.156       .  T
C1262      N1267   1.157       .  T
C1263      N1265   1.157       .  T
C1264      N1266   1.154       .  T
C1269      C1270   1.435       .  A
C1269      C1274   1.405       .  A
C1270      C1271   1.432       .  A
C1270      C1275   1.440       .  S
C1271      C1272   1.415       .  A
C1271      C1278   1.446       .  S
C1272      C1273   1.392       .  A
C1273      C1274   1.403       .  A
C1273      C1276   1.445       .  S
C1274      C1277   1.442       .  S
C1275      N1282   1.157       .  T
C1276      N1281   1.157       .  T
C1277      N1279   1.157       .  T
C1278      N1280   1.157       .  T
C1283      C1284   1.418       .  A
C1283      C1288   1.424       .  A
C1284      C1285   1.417       .  A
C1284      C1289   1.441       .  S
C1285      C1286   1.408       .  A
C1285      C1292   1.451       .  S
C1286      C1287   1.403       .  A
C1287      C1288   1.415       .  A
C1287      C1290   1.453       .  S
C1288      C1291   1.442       .  S
C1289      N1296   1.156       .  T
C1290      N1295   1.157       .  T
C1291      N1293   1.156       .  T
C1292      N1294   1.157       .  T
C1297      C1298   1.402       .  A
C1297      C1302   1.406       .  A
C1298      C1299   1.414       .  A
C1298      C1303   1.452       .  S
C1299      C1300   1.424       .  A
C1299      C1306   1.443       .  S
C1300      C1301   1.423       .  A
C1301      C1302   1.417       .  A
C1301      C1304   1.440       .  S
C1302      C1305   1.454       .  S
C1303      N1310   1.157       .  T
C1304      N1309   1.155       .  T
C1305      N1307   1.157       .  T
C1306      N1308   1.156       .  T
C1311      C1312   1.415       .  A
C1311      C1316   1.419       .  A
C1312      C1313   1.409       .  A
C1312      C1317   1.443       .  S
C1313      C1314   1.406       .  A
C1313      C1320   1.450       .  S
C1314      C1315   1.407       .  A
C1315      C1316   1.412       .  A
C1315      C1318   1.451       .  S
C1316      C1319   1.451       .  S
C1317      N1324   1.156       .  T
C1318      N1323   1.157       .  T
C1319      N1321   1.157       .  T
C1320      N1322   1.157       .  T
C1325      C1326   1.406       .  A
C1325      C1330   1.409       .  A
C1326      C1327   1.419       .  A
C1326      C1331   1.446       .  S
C1327      C1328   1.432       .  A
C1327      C1334   1.452       .  S
C1328      C1329   1.420       .  A
C1329      C1330   1.406       .  A
C1329      C1332   1.448       .  S
C1330      C1333   1.447       .  S
C1331      N1338   1.158       .  T
C1332      N1337   1.157       .  T
C1333      N1335   1.157       .  T
C1334      N1336   1.158   1_655  T
C1339      C1340   1.419       .  A
C1339      C1344   1.413       .  A
C1340      C1341   1.406       .  A
C1340      C1345   1.456       .  S
C1341      C1342   1.406       .  A
C1341      C1348   1.452       .  S
C1342      C1343   1.412       .  A
C1343      C1344   1.410       .  A
C1343      C1346   1.452       .  S
C1344      C1347   1.445       .  S
C1345      N1352   1.157       .  T
C1346      N1351   1.157       .  T
C1347      N1349   1.156       .  T
C1348      N1350   1.157       .  T
C1353      C1354   1.412       .  A
C1353      C1358   1.405       .  A
C1354      C1355   1.406       .  A
C1354      C1359   1.452       .  S
C1355      C1356   1.415       .  A
C1355      C1362   1.446       .  S
C1356      C1357   1.416       .  A
C1357      C1358   1.405       .  A
C1357      C1360   1.449       .  S
C1358      C1361   1.452       .  S
C1359      N1366   1.157       .  T
C1360      N1365   1.157       .  T
C1361      N1363   1.157       .  T
C1362      N1364   1.157       .  T
C1367      C1368   1.396       .  A
C1367      C1372   1.417       .  A
C1368      C1369   1.396       .  A
C1368      C1373   1.446       .  S
C1369      C1370   1.424       .  A
C1369      C1376   1.442   1_545  S
C1370      C1371   1.421       .  A
C1371      C1372   1.416       .  A
C1371      C1374   1.450       .  S
C1372      C1375   1.443       .  S
C1373      N1380   1.158       .  T
C1374      N1379   1.157       .  T
C1375      N1377   1.157       .  T
C1376      N1378   1.156       .  T
C1381      C1382   1.423       .  A
C1381      C1386   1.413       .  A
C1382      C1383   1.420   1_545  A
C1382      C1387   1.442       .  S
C1383      C1384   1.409       .  A
C1383      C1390   1.444       .  S
C1384      C1385   1.411       .  A
C1385      C1386   1.409   1_565  A
C1385      C1388   1.446       .  S
C1386      C1389   1.442       .  S
C1387      N1394   1.157       .  T
C1388      N1393   1.156       .  T
C1389      N1391   1.156       .  T
C1390      N1392   1.157       .  T
C1395      C1396   1.566       .  A
C1395      C1400   1.422       .  A
C1396      C1397   1.522       .  A
C1396      C1401   2.753       .  S
C1397      C1398   1.438       .  A
C1397      C1404   1.453       .  S
C1398      C1399   1.392       .  A
C1399      C1400   1.399       .  A
C1399      C1402   1.451       .  S
C1400      C1403   1.448       .  S
C1401      N1408   1.157       .  T
C1402      N1407   1.157       .  T
C1403      N1405   1.157       .  T
C1404      N1406   1.157       .  T
C1409      C1410   1.851       .  A
C1409      C1414   1.824       .  A
C1410      C1411   1.827       .  A
C1410      C1415   1.441       .  S
C1411      C1412   1.835       .  A
C1411      C1418   1.436       .  S
C1412      C1413   1.878       .  A
C1413      C1414   1.827       .  A
C1413      C1416   1.435       .  S
C1414      C1417   1.437       .  S
C1415      N1422   1.157       .  T
C1416      N1421   1.157       .  T
C1417      N1419   1.157       .  T
C1418      N1420   1.157       .  T
C1423      C1424   1.409       .  A
C1423      C1428   1.399       .  A
C1424      C1425   1.419       .  A
C1424      C1429   1.452       .  S
C1425      C1426   1.422       .  A
C1425      C1432   1.444       .  S
C1426      C1427   1.427       .  A
C1427      C1428   1.411       .  A
C1427      C1430   1.441       .  S
C1428      C1431   1.456       .  S
C1429      N1436   1.157       .  T
C1430      N1435   1.155       .  T
C1431      N1433   1.157       .  T
C1432      N1434   1.158       .  T
C1437      C1438   1.408       .  A
C1437      C1442   1.426       .  A
C1438      C1439   1.412       .  A
C1438      C1443   1.445       .  S
C1439      C1440   1.417       .  A
C1439      C1446   1.448       .  S
C1440      C1441   1.424       .  A
C1441      C1442   1.419       .  A
C1441      C1444   1.452       .  S
C1442      C1445   1.447       .  S
C1443      N1450   1.157       .  T
C1444      N1449   1.157       .  T
C1445      N1447   1.158       .  T
C1446      N1448   1.158       .  T
C1451      C1452   1.419       .  A
C1451      C1456   1.407       .  A
C1452      C1453   1.424   1_455  A
C1452      C1457   1.443       .  S
C1453      C1454   1.417       .  A
C1453      C1460   1.442       .  S
C1454      C1455   1.422       .  A
C1455      C1456   1.417   1_655  A
C1455      C1458   1.440       .  S
C1456      C1459   1.452       .  S
C1457      N1464   1.157       .  T
C1458      N1463   1.155       .  T
C1459      N1461   1.157       .  T
C1460      N1462   1.158       .  T
C1465      C1466   1.427       .  A
C1465      C1470   1.421       .  A
C1466      C1467   1.415       .  A
C1466      C1471   1.449       .  S
C1467      C1468   1.409       .  A
C1467      C1474   1.453       .  S
C1468      C1469   1.397       .  A
C1469      C1470   1.406       .  A
C1469      C1472   1.455       .  S
C1470      C1473   1.440       .  S
C1471      N1478   1.157       .  T
C1472      N1477   1.157       .  T
C1473      N1475   1.154       .  T
C1474      N1476   1.157       .  T
C1479      C1480   1.419       .  A
C1479      C1484   1.415       .  A
C1480      C1481   1.405       .  A
C1480      C1485   1.451       .  S
C1481      C1482   1.403       .  A
C1481      C1488   1.451       .  S
C1482      C1483   1.408       .  A
C1483      C1484   1.407       .  A
C1483      C1486   1.447       .  S
C1484      C1487   1.452       .  S
C1485      N1492   1.157       .  T
C1486      N1491   1.155       .  T
C1487      N1489   1.158       .  T
C1488      N1490   1.157       .  T
C1493      C1494   1.412       .  A
C1493      C1498   1.408       .  A
C1494      C1495   1.408       .  A
C1494      C1499   1.445       .  S
C1495      C1496   1.407       .  A
C1495      C1502   1.446       .  S
C1496      C1497   1.416       .  A
C1497      C1498   1.413       .  A
C1497      C1500   1.448       .  S
C1498      C1501   1.451       .  S
C1499      N1506   1.156       .  T
C1500      N1505   1.157       .  T
C1501      N1503   1.157       .  T
C1502      N1504   1.156       .  T
C1507      C1508   1.412       .  A
C1507      C1512   1.420       .  A
C1508      C1509   1.389       .  A
C1508      C1513   1.445       .  S
C1509      C1510   1.411       .  A
C1509      C1516   1.449       .  S
C1510      C1511   1.421       .  A
C1511      C1512   1.422       .  A
C1511      C1514   1.443       .  S
C1512      C1515   1.449       .  S
C1513      N1520   1.156       .  T
C1514      N1519   1.156       .  T
C1515      N1517   1.157       .  T
C1516      N1518   1.158       .  T
C1521      C1522   1.420       .  A
C1521      C1526   1.417       .  A
C1522      C1523   1.431   1_565  A
C1522      C1527   1.446       .  S
C1523      C1524   1.440       .  A
C1523      C1530   1.444       .  S
C1524      C1525   1.430       .  A
C1525      C1526   1.429   1_545  A
C1525      C1528   1.436       .  S
C1526      C1529   1.450       .  S
C1527      N1534   1.156       .  T
C1528      N1533   1.155       .  T
C1529      N1531   1.157       .  T
C1530      N1532   1.157       .  T
C1535      C1536   1.425       .  A
C1535      C1540   1.389       .  A
C1536      C1537   1.453   1_455  A
C1536      C1541   1.446       .  S
C1537      C1538   1.447       .  A
C1537      C1544   1.441       .  S
C1538      C1539   1.422       .  A
C1539      C1540   1.388   1_655  A
C1539      C1542   1.428       .  S
C1540      C1543   1.438       .  S
C1541      N1548   1.157       .  T
C1542      N1547   1.154       .  T
C1543      N1545   1.155       .  T
C1544      N1546   1.158       .  T
