geometry optimzed in LAMMPS
_audit_creation_date              2020-11-30 
_audit_creation_method            'lammps2cif' 
_symmetry_space_group_name_H-M    'P1' 
_symmetry_Int_Tables_number       1 
_symmetry_cell_setting            triclinic 
loop_ 
_symmetry_equiv_pos_as_xyz 
  x,y,z 
_cell_length_a                    39.55115669 
_cell_length_b                    39.33796639778175 
_cell_length_c                    39.6189443193455 
_cell_angle_alpha                 89.8604312153087 
_cell_angle_beta                  89.75378463333676 
_cell_angle_gamma                 90.09814915086513 
loop_ 
_atom_site_label 
_atom_site_type_symbol 
_atom_site_fract_x 
_atom_site_fract_y 
_atom_site_fract_z 
_atom_site_charge 
C1          C  0.25238207  0.22503164  0.27273445     0.80000
N2          N  0.27600045  0.22442054  0.24773490    -0.78300
C3          C  0.27582070  0.24793433  0.22262827     0.82400
N4          N  0.25150653  0.27223855  0.22242363    -0.78300
C5          C  0.22748863  0.27314690  0.24705886     0.82500
N6          N  0.22812752  0.24952247  0.27224343    -0.80000
O7          O  0.96645541  0.46096848  0.27605470    -0.74700
O8          O  0.03271150  0.53258333  0.28069017    -0.74700
O9          O  0.96423837  0.53006088  0.28011617    -0.74800
O10         O  0.03494907  0.46343460  0.27687628    -0.74800
O11         O  0.03560829  0.46650287  0.22071684    -0.74800
O12         O  0.96523975  0.53304187  0.22393425    -0.74700
O13         O  0.03372448  0.53509262  0.22448159    -0.74700
O14         O  0.96723630  0.46452274  0.21992706    -0.74800
Ni15       Ni  0.99957586  0.49663917  0.28046843     1.25400
Ni16       Ni  0.00047755  0.49994401  0.22032325     1.25400
C17         C  0.95593953  0.45090604  0.24713481     0.87500
C18         C  0.04419326  0.54557064  0.25319335     0.87400
C19         C  0.95305273  0.54251680  0.25242389     0.87400
C20         C  0.04679756  0.45377873  0.24828387     0.87600
C21         C  0.77277227  0.72285924  0.25456917     0.80000
N22         N  0.77303851  0.74769327  0.27838881    -0.78300
C23         C  0.74918099  0.77253180  0.27805819     0.82400
N24         N  0.72516262  0.77241354  0.25366182    -0.78300
C25         C  0.72457517  0.74777846  0.22980762     0.82500
N26         N  0.74842744  0.72306479  0.23043106    -0.80000
O27         O  0.22710101  0.03375532  0.46681685    -0.74700
O28         O  0.22941271  0.96411787  0.53495823    -0.74700
O29         O  0.22645694  0.03306925  0.53509516    -0.74800
O30         O  0.23000145  0.96455900  0.46688995    -0.74800
O31         O  0.28633294  0.96701576  0.46692835    -0.74800
O32         O  0.28279935  0.03523427  0.53571406    -0.74700
O33         O  0.28572556  0.96671522  0.53531011    -0.74700
O34         O  0.28343670  0.03570478  0.46716449    -0.74800
Ni35       Ni  0.22622602  0.99880766  0.50091853     1.25400
Ni36       Ni  0.28655837  0.00129339  0.50127808     1.25400
C37         C  0.25502887  0.04612768  0.45567395     0.87500
C38         C  0.25798196  0.95389591  0.54628246     0.87400
C39         C  0.25403996  0.04537213  0.54673545     0.87400
C40         C  0.25869987  0.95426991  0.45584569     0.87600
O41         O  0.77631878  0.96740165  0.46582052    -0.74700
O42         O  0.77393791  0.03681810  0.53322079    -0.74700
O43         O  0.77581020  0.96810707  0.53415781    -0.74800
O44         O  0.77436370  0.03635421  0.46494051    -0.74800
O45         O  0.71801725  0.03458171  0.46472623    -0.74800
O46         O  0.71946144  0.96695438  0.53411544    -0.74700
O47         O  0.71757303  0.03527523  0.53317997    -0.74700
O48         O  0.71996254  0.96617208  0.46594724    -0.74800
Ni49       Ni  0.77714446  0.00223924  0.49952559     1.25400
Ni50       Ni  0.71677402  0.00069385  0.49947548     1.25400
C51         C  0.74838413  0.95539999  0.45470821     0.87500
C52         C  0.74539752  0.04729454  0.54447366     0.87400
C53         C  0.74776989  0.95647141  0.54573099     0.87400
C54         C  0.74593968  0.04657982  0.45327853     0.87600
C55         C  0.27846498  0.74947747  0.77614636     0.80000
N56         N  0.25294418  0.72631521  0.77684037    -0.78300
C57         C  0.22937685  0.72570688  0.75193487     0.82400
N58         N  0.23174420  0.74842706  0.72611633    -0.78300
C59         C  0.25723534  0.77160529  0.72503201     0.82500
N60         N  0.28038175  0.77202531  0.75022594    -0.80000
O61         O  0.03365133  0.47036546  0.71746820    -0.74700
O62         O  0.96542161  0.53884643  0.71866354    -0.74700
O63         O  0.03363673  0.53930729  0.71985482    -0.74800
O64         O  0.96548302  0.47016190  0.71635861    -0.74800
O65         O  0.96403209  0.46820937  0.77259462    -0.74800
O66         O  0.03243375  0.53694668  0.77607717    -0.74700
O67         O  0.96394003  0.53673579  0.77489578    -0.74700
O68         O  0.03256059  0.46833515  0.77372080    -0.74800
Ni69       Ni  0.99960836  0.50474329  0.71608613     1.25400
Ni70       Ni  0.99821648  0.50247947  0.77632942     1.25400
C71         C  0.04429577  0.45796502  0.74537516     0.87500
C72         C  0.95339183  0.54908118  0.74691606     0.87400
C73         C  0.04429256  0.54953286  0.74860591     0.87400
C74         C  0.95338688  0.45792049  0.74388250     0.87600
C75         C  0.76753488  0.28328485  0.73969670     0.80000
N76         N  0.76759486  0.25791438  0.71641782    -0.78300
C77         C  0.74407709  0.23276804  0.71787547     0.82400
N78         N  0.72068857  0.23305386  0.74285780    -0.78300
C79         C  0.72027454  0.25809758  0.76617908     0.82500
N80         N  0.74371432  0.28327511  0.76456436    -0.80000
O81         O  0.46740883  0.77687322  0.96923749    -0.74700
O82         O  0.53712139  0.77610466  0.03554042    -0.74700
O83         O  0.53550938  0.77597043  0.96716402    -0.74800
O84         O  0.46868303  0.77650521  0.03757371    -0.74800
O85         O  0.46774210  0.71984417  0.03700078    -0.74800
O86         O  0.53530653  0.71928819  0.96807000    -0.74700
O87         O  0.53646532  0.71947313  0.03631017    -0.74700
O88         O  0.46689467  0.72022692  0.96880101    -0.74800
Ni89       Ni  0.50222723  0.77837120  0.00242934     1.25400
Ni90       Ni  0.50159900  0.71768585  0.00259012     1.25400
C91         C  0.45577554  0.74879844  0.95781533     0.87500
C92         C  0.54836763  0.74783845  0.04695913     0.87400
C93         C  0.54629318  0.74741183  0.95596232     0.87400
C94         C  0.45681261  0.74816539  0.04850219     0.87600
O95         O  0.53350173  0.27774577  0.96138396    -0.74700
O96         O  0.46613349  0.27518839  0.03080306    -0.74700
O97         O  0.53490652  0.27407864  0.02933500    -0.74800
O98         O  0.46509794  0.27876932  0.96266096    -0.74800
O99         O  0.46460347  0.22221830  0.95945282    -0.74800
O100        O  0.53312274  0.21747675  0.02729339    -0.74700
O101        O  0.46464730  0.21864648  0.02770663    -0.74700
O102        O  0.53287589  0.22113346  0.95924710    -0.74800
Ni103      Ni  0.49992030  0.27846363  0.99619230     1.25400
Ni104      Ni  0.49875408  0.21786153  0.99334589     1.25400
C105        C  0.54445210  0.24980349  0.94900339     0.87500
C106        C  0.45404012  0.24653927  0.04054072     0.87400
C107        C  0.54574352  0.24498988  0.03910220     0.87400
C108        C  0.45349618  0.25124614  0.94985685     0.87600
C109        C  0.75062604  0.78030870  0.72973895     0.80000
N110        N  0.77602856  0.75719948  0.72994435    -0.78300
C111        C  0.77586669  0.73110445  0.75243792     0.82400
N112        N  0.74994622  0.72820860  0.77484430    -0.78300
C113        C  0.72433460  0.75114809  0.77485468     0.82500
N114        N  0.72486043  0.77707377  0.75222159    -0.80000
C115        C  0.77759260  0.26713830  0.23945428     0.80000
N116        N  0.77545796  0.24430896  0.26522981    -0.78300
C117        C  0.75065690  0.22033950  0.26585620     0.82400
N118        N  0.72785758  0.21940477  0.24035598    -0.78300
C119        C  0.72952633  0.24198589  0.21441289     0.82500
N120        N  0.75447259  0.26583554  0.21412829    -0.80000
C121        C  0.25134415  0.23075339  0.72105473     0.80000
N122        N  0.22644523  0.25442487  0.72124881    -0.78300
C123        C  0.22487764  0.27845207  0.74568415     0.82400
N124        N  0.24874757  0.27877390  0.77022387    -0.78300
C125        C  0.27387065  0.25523811  0.77045950     0.82500
N126        N  0.27498086  0.23123902  0.74582611    -0.80000
C127        C  0.27100055  0.75261679  0.22291438     0.80000
N128        N  0.27291595  0.77646762  0.24754774    -0.78300
C129        C  0.24998394  0.77714094  0.27312729     0.82400
N130        N  0.22481554  0.75356052  0.27388259    -0.78300
C131        C  0.22244462  0.72949872  0.24943025     0.82500
N132        N  0.24573395  0.72915741  0.22406419    -0.80000
C133        C  0.29964420  0.25560362  0.79741475    -0.01600
C134        C  0.30510235  0.28495854  0.81659923    -0.09600
C135        C  0.32976485  0.28562621  0.84170080    -0.18400
C136        C  0.34968910  0.25663533  0.84869200     0.04000
C137        C  0.34340198  0.22666061  0.82970860     0.18200
C138        C  0.31887333  0.22652045  0.80421968    -0.19800
C139        C  0.36158447  0.19691765  0.83627384    -0.21100
C140        C  0.38605632  0.19624806  0.86129659    -0.19600
C141        C  0.39330247  0.22544299  0.88004322     0.19600
C142        C  0.37546862  0.25618257  0.87386883     0.01700
C143        C  0.38449170  0.28513228  0.89296437    -0.14400
C144        C  0.40986386  0.28346550  0.91731622    -0.12100
C145        C  0.42692378  0.25295501  0.92369603     0.01200
C146        C  0.41847202  0.22404938  0.90488210    -0.24300
H147        H  0.29050052  0.30775371  0.81194606     0.09200
H148        H  0.33243702  0.30914852  0.85530196     0.12800
H149        H  0.31451699  0.20349787  0.78986792     0.11500
H150        H  0.35676835  0.17394481  0.82201386     0.12700
H151        H  0.39960356  0.17276287  0.86584660     0.11700
H152        H  0.37264678  0.30952519  0.88952105     0.08800
H153        H  0.41595665  0.30621098  0.93140816     0.12100
H154        H  0.43174196  0.20037158  0.90933713     0.14000
C155        C  0.57338644  0.24309223  0.06409152    -0.01600
C156        C  0.57858730  0.21331395  0.08277705    -0.09600
C157        C  0.60443971  0.21136881  0.10659770    -0.18400
C158        C  0.62632990  0.23924770  0.11231312     0.04000
C159        C  0.62156583  0.26905077  0.09251948     0.18200
C160        C  0.59512241  0.27081590  0.06899673    -0.19800
C161        C  0.64314699  0.29699242  0.09638165    -0.21100
C162        C  0.66908772  0.29626274  0.11994062    -0.19600
C163        C  0.67384843  0.26774085  0.14055270     0.19600
C164        C  0.65258199  0.23876860  0.13703415     0.01700
C165        C  0.65813417  0.21088542  0.15888847    -0.14400
C166        C  0.68321757  0.21201903  0.18352679    -0.12100
C167        C  0.70396605  0.24070476  0.18711800     0.01200
C168        C  0.69940349  0.26830724  0.16513286    -0.24300
H169        H  0.56229056  0.19145412  0.07927647     0.09200
H170        H  0.60665067  0.18763642  0.12002278     0.12800
H171        H  0.59167024  0.29377508  0.05420946     0.11500
H172        H  0.63984751  0.31966766  0.08116011     0.12700
H173        H  0.68523132  0.31840152  0.12241276     0.11700
H174        H  0.64316007  0.18800728  0.15802815     0.08800
H175        H  0.68626039  0.19020495  0.19996410     0.12100
H176        H  0.71517630  0.29071586  0.16769760     0.14000
C177        C  0.57160872  0.74660262  0.92859005    -0.01600
C178        C  0.59113833  0.71741751  0.92348596    -0.09600
C179        C  0.61510471  0.71613989  0.89766651    -0.18400
C180        C  0.62015346  0.74414833  0.87579142     0.04000
C181        C  0.59975619  0.77349870  0.88071289     0.18200
C182        C  0.57596562  0.77454411  0.90705833    -0.19800
C183        C  0.60336472  0.80173452  0.85947203    -0.21100
C184        C  0.62745024  0.80183939  0.83387885    -0.19600
C185        C  0.64858623  0.77377320  0.82903558     0.19600
C186        C  0.64502725  0.74432623  0.84961006     0.01700
C187        C  0.66701434  0.71666489  0.84349406    -0.14400
C188        C  0.69231983  0.71878054  0.81897596    -0.12100
C189        C  0.69632027  0.74824836  0.79947370     0.01200
C190        C  0.67383055  0.77534602  0.80416065    -0.24300
H191        H  0.58815505  0.69547561  0.93981381     0.09200
H192        H  0.62927180  0.69288105  0.89563090     0.12800
H193        H  0.56059100  0.79706579  0.91061499     0.11500
H194        H  0.58769503  0.82404852  0.86290672     0.12700
H195        H  0.62993597  0.82426784  0.81810712     0.11700
H196        H  0.66575101  0.69322566  0.85753984     0.08800
H197        H  0.70900496  0.69725074  0.81550540     0.12100
H198        H  0.67652762  0.79823785  0.78908188     0.14000
C199        C  0.42966283  0.74791833  0.07422680    -0.01600
C200        C  0.40951670  0.71891253  0.07864851    -0.09600
C201        C  0.38298373  0.71862646  0.10194819    -0.18400
C202        C  0.37588730  0.74745184  0.12199147     0.04000
C203        C  0.39702095  0.77651381  0.11803631     0.18200
C204        C  0.42330240  0.77662835  0.09407768    -0.19800
C205        C  0.39188480  0.80527851  0.13808801    -0.21100
C206        C  0.36627006  0.80580119  0.16218513    -0.19600
C207        C  0.34477449  0.77779973  0.16641720     0.19600
C208        C  0.34888797  0.74838836  0.14605427     0.01700
C209        C  0.32569310  0.72131825  0.15062292    -0.14400
C210        C  0.30016967  0.72305102  0.17502104    -0.12100
C211        C  0.29693956  0.75163407  0.19580648     0.01200
C212        C  0.31921013  0.77905143  0.19106447    -0.24300
H213        H  0.41393907  0.69636682  0.06362498     0.09200
H214        H  0.36870445  0.69535254  0.10382994     0.12800
H215        H  0.43903038  0.79905254  0.09108983     0.11500
H216        H  0.40797437  0.82745082  0.13530511     0.12700
H217        H  0.36316731  0.82835033  0.17754887     0.11700
H218        H  0.32648866  0.69848328  0.13569127     0.08800
H219        H  0.28321891  0.70157987  0.17793742     0.12100
H220        H  0.31671763  0.80154552  0.20663386     0.14000
C221        C  0.57082287  0.25051568  0.92259850    -0.01600
C222        C  0.58395127  0.22004163  0.91004462    -0.09600
C223        C  0.60863394  0.22020778  0.88495731    -0.18400
C224        C  0.62103853  0.25109973  0.87141154     0.04000
C225        C  0.60819884  0.28202180  0.88472940     0.18200
C226        C  0.58319855  0.28146915  0.90994263    -0.19800
C227        C  0.62044867  0.31327573  0.87287927    -0.21100
C228        C  0.64544464  0.31448724  0.84813052    -0.19600
C229        C  0.65826029  0.28448488  0.83419706     0.19600
C230        C  0.64583415  0.25236195  0.84528911     0.01700
C231        C  0.65842437  0.22284840  0.82942432    -0.14400
C232        C  0.68252051  0.22512103  0.80393853    -0.12100
C233        C  0.69520179  0.25669522  0.79360024     0.01200
C234        C  0.68317413  0.28634752  0.80890575    -0.24300
H235        H  0.57515825  0.19577719  0.91966852     0.09200
H236        H  0.61763087  0.19566622  0.87703088     0.12800
H237        H  0.57340081  0.30523398  0.91971090     0.11500
H238        H  0.61079764  0.33694444  0.88298916     0.12700
H239        H  0.65460200  0.33905422  0.83962591     0.11700
H240        H  0.64987685  0.19759923  0.83565917     0.08800
H241        H  0.69146816  0.20185483  0.79238341     0.12100
H242        H  0.69260098  0.31088455  0.80055756     0.14000
C243        C  0.07032155  0.43119183  0.74477654    -0.01600
C244        C  0.07543635  0.41184333  0.71561058    -0.09600
C245        C  0.09962978  0.38613149  0.71488546    -0.18400
C246        C  0.11991564  0.37922074  0.74339392     0.04000
C247        C  0.11521059  0.39959303  0.77263157     0.18200
C248        C  0.09024672  0.42488466  0.77324097    -0.19800
C249        C  0.13570234  0.39488304  0.80095449    -0.21100
C250        C  0.16114405  0.37057162  0.80075485    -0.19600
C251        C  0.16613768  0.34981065  0.77254741     0.19600
C252        C  0.14511020  0.35330928  0.74373354     0.01700
C253        C  0.15014800  0.33061604  0.71658832    -0.14400
C254        C  0.17574873  0.30634900  0.71754228    -0.12100
C255        C  0.19729326  0.30384014  0.74543515     0.01200
C256        C  0.19209553  0.32551945  0.77300439    -0.24300
H257        H  0.06039378  0.41635693  0.69325924     0.09200
H258        H  0.10217510  0.37253331  0.69144809     0.12800
H259        H  0.08674794  0.44012762  0.79575554     0.11500
H260        H  0.13233655  0.41043589  0.82325897     0.12700
H261        H  0.17692712  0.36787925  0.82289442     0.11700
H262        H  0.13457575  0.33073066  0.69434662     0.08800
H263        H  0.17880132  0.28965315  0.69604949     0.12100
H264        H  0.20817355  0.32344101  0.79500629     0.14000
C265        C  0.80298749  0.70541076  0.75159240    -0.01600
C266        C  0.82348037  0.70227602  0.72289079    -0.09600
C267        C  0.84820913  0.67722035  0.72105584    -0.18400
C268        C  0.85344825  0.65443772  0.74816476     0.04000
C269        C  0.83339805  0.65847634  0.77774709     0.18200
C270        C  0.80823423  0.68354812  0.77906260    -0.19800
C271        C  0.83859130  0.63748905  0.80581858    -0.21100
C272        C  0.86339525  0.61251198  0.80516694    -0.19600
C273        C  0.88308164  0.60747407  0.77617674     0.19600
C274        C  0.87803136  0.62801327  0.74705900     0.01700
C275        C  0.89755641  0.62095735  0.71795185    -0.14400
C276        C  0.92160058  0.59517183  0.71804407    -0.12100
C277        C  0.92720918  0.57570009  0.74707577     0.01200
C278        C  0.90775676  0.58188150  0.77605691    -0.24300
H279        H  0.82008511  0.71895231  0.70137791     0.09200
H280        H  0.86292623  0.67659841  0.69814365     0.12800
H281        H  0.79282645  0.68612751  0.80161497     0.11500
H282        H  0.82351180  0.64055536  0.82851358     0.12700
H283        H  0.86700978  0.59683486  0.82739275     0.11700
H284        H  0.89468551  0.63461004  0.69455752     0.08800
H285        H  0.93615913  0.59073999  0.69525829     0.12100
H286        H  0.91159497  0.56654919  0.79849533     0.14000
C287        C  0.79409026  0.30975088  0.73883305    -0.01600
C288        C  0.81409846  0.31430263  0.70993036    -0.09600
C289        C  0.84012051  0.33825435  0.70937092    -0.18400
C290        C  0.84725197  0.35835048  0.73803626     0.04000
C291        C  0.82683299  0.35362525  0.76730557     0.18200
C292        C  0.80040817  0.32979958  0.76732233    -0.19800
C293        C  0.83314614  0.37238308  0.79657375    -0.21100
C294        C  0.85952699  0.39570011  0.79752913    -0.19600
C295        C  0.87997470  0.40111290  0.76910936     0.19600
C296        C  0.87400991  0.38273769  0.73883427     0.01700
C297        C  0.89502728  0.38971233  0.71067590    -0.14400
C298        C  0.92069719  0.41396719  0.71251093    -0.12100
C299        C  0.92657565  0.43180971  0.74243906     0.01200
C300        C  0.90624437  0.42507030  0.77073131    -0.24300
H301        H  0.80970070  0.29921491  0.68753338     0.09200
H302        H  0.85439986  0.34006639  0.68623675     0.12800
H303        H  0.78525111  0.32632823  0.78994413     0.11500
H304        H  0.81770821  0.36882616  0.81898257     0.12700
H305        H  0.86387948  0.40970998  0.82063555     0.11700
H306        H  0.89214663  0.37714632  0.68674603     0.08800
H307        H  0.93612900  0.41867362  0.69032764     0.12100
H308        H  0.91043813  0.43897912  0.79394400     0.14000
C309        C  0.30401185  0.75034314  0.80327582    -0.01600
C310        C  0.32166205  0.78043826  0.81004072    -0.09600
C311        C  0.34613045  0.78158345  0.83526792    -0.18400
C312        C  0.35418122  0.75229764  0.85437450     0.04000
C313        C  0.33667177  0.72162769  0.84692161     0.18200
C314        C  0.31149289  0.72106584  0.82200512    -0.19800
C315        C  0.34469696  0.69157974  0.86406449    -0.21100
C316        C  0.36990322  0.69123925  0.88841004    -0.19600
C317        C  0.38718019  0.72110216  0.89678916     0.19600
C318        C  0.37924327  0.75219611  0.88024937     0.01700
C319        C  0.39658521  0.78184280  0.89052756    -0.14400
C320        C  0.42107423  0.78052315  0.91571422    -0.12100
C321        C  0.42936306  0.74970565  0.93144315     0.01200
C322        C  0.41225779  0.72006291  0.92180660    -0.24300
H323        H  0.31637460  0.80340013  0.79587520     0.09200
H324        H  0.35864351  0.80565269  0.83878064     0.12800
H325        H  0.29828073  0.69753478  0.81660213     0.11500
H326        H  0.33161251  0.66806907  0.85835845     0.12700
H327        H  0.37573452  0.66747496  0.90098194     0.11700
H328        H  0.39159062  0.80654620  0.87988592     0.08800
H329        H  0.43374712  0.80387661  0.92273534     0.12100
H330        H  0.41820974  0.69613016  0.93402380     0.14000
C331        C  0.07076411  0.57605384  0.75026745    -0.01600
C332        C  0.08953053  0.58033956  0.77983677    -0.09600
C333        C  0.11501716  0.60480299  0.78166182    -0.18400
C334        C  0.12245031  0.62618362  0.75384896     0.04000
C335        C  0.10272757  0.62232165  0.72415388     0.18200
C336        C  0.07745183  0.59722667  0.72251212    -0.19800
C337        C  0.10836533  0.64349884  0.69625382    -0.21100
C338        C  0.13346808  0.66825465  0.69702617    -0.19600
C339        C  0.15388356  0.67213644  0.72553737     0.19600
C340        C  0.14874152  0.65115109  0.75437424     0.01700
C341        C  0.17048512  0.65577260  0.78225301    -0.14400
C342        C  0.19635845  0.67993140  0.78136573    -0.12100
C343        C  0.20140908  0.70052384  0.75287281     0.01200
C344        C  0.17976444  0.69663954  0.72515747    -0.24300
H345        H  0.08480187  0.56436018  0.80166364     0.09200
H346        H  0.12831498  0.60636902  0.80526698     0.12800
H347        H  0.06275167  0.59438518  0.69964453     0.11500
H348        H  0.09327178  0.64087318  0.67363537     0.12700
H349        H  0.13722287  0.68420762  0.67497672     0.11700
H350        H  0.16850976  0.64084290  0.80499577     0.08800
H351        H  0.21253300  0.68239133  0.80321663     0.12100
H352        H  0.18336003  0.71232797  0.70288911     0.14000
C353        C  0.74855595  0.19521197  0.29382109    -0.01600
C354        C  0.72019167  0.17401624  0.29721953    -0.09600
C355        C  0.71821396  0.14985965  0.32305717    -0.18400
C356        C  0.74485521  0.14585861  0.34642932     0.04000
C357        C  0.77365117  0.16727356  0.34277900     0.18200
C358        C  0.77509380  0.19177584  0.31693786    -0.19800
C359        C  0.80107716  0.16391076  0.36471713    -0.21100
C360        C  0.80074203  0.13945938  0.39007925    -0.19600
C361        C  0.77275444  0.11808993  0.39448888     0.19600
C362        C  0.74417188  0.12121719  0.37304656     0.01700
C363        C  0.71618056  0.09961059  0.37931006    -0.14400
C364        C  0.71677651  0.07579795  0.40551663    -0.12100
C365        C  0.74529670  0.07237291  0.42606746     0.01200
C366        C  0.77320980  0.09362070  0.42036653    -0.24300
H367        H  0.69925191  0.17603299  0.27980178     0.09200
H368        H  0.69569711  0.13449561  0.32377209     0.12800
H369        H  0.79728540  0.20782021  0.31453302     0.11500
H370        H  0.82311960  0.18011656  0.36204882     0.12700
H371        H  0.82252477  0.13732326  0.40644732     0.11700
H372        H  0.69339760  0.10059617  0.36461473     0.08800
H373        H  0.69487735  0.05965235  0.40940417     0.12100
H374        H  0.79525426  0.09139824  0.43638982     0.14000
C375        C  0.74781452  0.93089722  0.57310348    -0.01600
C376        C  0.71766680  0.92294797  0.59002626    -0.09600
C377        C  0.71720267  0.89937396  0.61628194    -0.18400
C378        C  0.74707792  0.88266635  0.62648443     0.04000
C379        C  0.77753812  0.89025703  0.60879654     0.18200
C380        C  0.77771412  0.91442547  0.58263377    -0.19800
C381        C  0.80756309  0.87350332  0.61716099    -0.21100
C382        C  0.80791440  0.84900702  0.64250970    -0.19600
C383        C  0.77838858  0.84115232  0.66052181     0.19600
C384        C  0.74768424  0.85834836  0.65322618     0.00700
C385        C  0.71891595  0.85048501  0.67306718    -0.14400
C386        C  0.72028431  0.82574866  0.69820106    -0.12100
C387        C  0.75020541  0.80788338  0.70439341     0.01200
C388        C  0.77931583  0.81601601  0.68570635    -0.24300
H389        H  0.69417927  0.93520819  0.58312863     0.09200
H390        H  0.69292899  0.89456805  0.62775606     0.12800
H391        H  0.80113622  0.92015325  0.56946485     0.11500
H392        H  0.83086020  0.87910291  0.60374101     0.12700
H393        H  0.83146082  0.83614915  0.64809696     0.11700
H394        H  0.69494608  0.86300963  0.66993385     0.08800
H395        H  0.69748256  0.82019488  0.71243422     0.12100
H396        H  0.80277531  0.80272395  0.69068627     0.14000
C397        C  0.74390316  0.20484560  0.69310581    -0.01600
C398        C  0.71551227  0.18366531  0.69051841    -0.09600
C399        C  0.71477984  0.15715459  0.66736165    -0.18400
C400        C  0.74267907  0.15080998  0.64593853     0.04000
C401        C  0.77182413  0.17175044  0.64934908     0.18200
C402        C  0.77205486  0.19864403  0.67252143    -0.19800
C403        C  0.80059133  0.16573864  0.62962701    -0.21100
C404        C  0.80096911  0.13951040  0.60625625    -0.19600
C405        C  0.77237573  0.11909892  0.60163637     0.19600
C406        C  0.74270360  0.12452286  0.62124760     0.01700
C407        C  0.71418479  0.10380720  0.61480897    -0.14400
C408        C  0.71515535  0.07890774  0.58987494    -0.12100
C409        C  0.74456710  0.07355841  0.57087437     0.01200
C410        C  0.77316421  0.09355265  0.57708482    -0.24300
H411        H  0.69347366  0.18769305  0.70632936     0.09200
H412        H  0.69206812  0.14201901  0.66706583     0.12800
H413        H  0.79435829  0.21453657  0.67474682     0.11500
H414        H  0.82296880  0.18142851  0.63229789     0.12700
H415        H  0.82363772  0.13547131  0.59133982     0.11700
H416        H  0.69056919  0.10649722  0.62816357     0.08800
H417        H  0.69275754  0.06365224  0.58557502     0.12100
H418        H  0.79595275  0.08971157  0.56227267     0.14000
C419        C  0.25283791  0.80292388  0.30023748    -0.01600
C420        C  0.28084457  0.82480339  0.30160183    -0.09600
C421        C  0.28380375  0.84894461  0.32722035    -0.18400
C422        C  0.25856823  0.85220226  0.35239231     0.04000
C423        C  0.23007866  0.83016581  0.35069795     0.18200
C424        C  0.22762041  0.80577875  0.32502758    -0.19800
C425        C  0.20393136  0.83278838  0.37442482    -0.21100
C426        C  0.20502030  0.85740048  0.39944457    -0.19600
C427        C  0.23255314  0.87962626  0.40170343     0.19600
C428        C  0.26015821  0.87689728  0.37876163     0.01700
C429        C  0.28797878  0.89911148  0.38322721    -0.14400
C430        C  0.28773751  0.92372783  0.40861290    -0.12100
C431        C  0.25974065  0.92723864  0.43005713     0.01200
C432        C  0.23244484  0.90480268  0.42670320    -0.24300
H433        H  0.30074667  0.82328142  0.28280493     0.09200
H434        H  0.30592386  0.86495402  0.32635228     0.12800
H435        H  0.20571688  0.78919522  0.32422847     0.11500
H436        H  0.18219811  0.81601220  0.37331152     0.12700
H437        H  0.18408475  0.85914603  0.41709576     0.11700
H438        H  0.31029134  0.89809704  0.36756572     0.08800
H439        H  0.30929271  0.94056593  0.41100506     0.12100
H440        H  0.21099508  0.90687637  0.44371921     0.14000
C441        C  0.25186243  0.20422968  0.69457183    -0.01600
C442        C  0.22504798  0.20178077  0.67168513    -0.09600
C443        C  0.22425705  0.17617517  0.64750239    -0.18400
C444        C  0.25048890  0.15195838  0.64523905     0.04000
C445        C  0.27830946  0.15521882  0.66762179     0.18200
C446        C  0.27863556  0.18099294  0.69213201    -0.19800
C447        C  0.30562775  0.13274647  0.66537949    -0.21100
C448        C  0.30605015  0.10723887  0.64113522    -0.19600
C449        C  0.27881219  0.10309418  0.61906807     0.19600
C450        C  0.25028222  0.12491802  0.62129965     0.01700
C451        C  0.22264107  0.11850625  0.59967741    -0.14400
C452        C  0.22381993  0.09232311  0.57607218    -0.12100
C453        C  0.25258377  0.07191297  0.57293491     0.01200
C454        C  0.27990952  0.07722528  0.59471337    -0.24300
H455        H  0.20419119  0.21956398  0.67258367     0.09200
H456        H  0.20287150  0.17627677  0.63076803     0.12800
H457        H  0.29980295  0.18288753  0.70932759     0.11500
H458        H  0.32697529  0.13511942  0.68227981     0.12700
H459        H  0.32775356  0.09050523  0.63976575     0.11700
H460        H  0.19959943  0.13303382  0.60053358     0.08800
H461        H  0.20227442  0.08846350  0.55971829     0.12100
H462        H  0.30199074  0.06101801  0.59287053     0.14000
C463        C  0.25911875  0.92681508  0.57219960    -0.01600
C464        C  0.28806178  0.92243306  0.59196688    -0.09600
C465        C  0.28954126  0.89682603  0.61635495    -0.18400
C466        C  0.26203536  0.87435398  0.62156466     0.04000
C467        C  0.23292727  0.87859014  0.60102190     0.18200
C468        C  0.23160776  0.90480775  0.57692910    -0.19800
C469        C  0.20527586  0.85662488  0.60459769    -0.21100
C470        C  0.20563759  0.83074888  0.62852081    -0.19600
C471        C  0.23350982  0.82641578  0.64972065     0.19600
C472        C  0.26221238  0.84802768  0.64649686     0.01700
C473        C  0.28955719  0.84264596  0.66875095    -0.14400
C474        C  0.28799992  0.81758904  0.69369522    -0.12100
C475        C  0.25938598  0.79678633  0.69720939     0.01200
C476        C  0.23249573  0.80097059  0.67463315    -0.24300
H477        H  0.30966956  0.93911422  0.58878261     0.09200
H478        H  0.31263007  0.89526343  0.63058632     0.12800
H479        H  0.20924161  0.90776970  0.56146785     0.11500
H480        H  0.18312627  0.85955655  0.58884947     0.12700
H481        H  0.18372929  0.81429557  0.63077779     0.11700
H482        H  0.31231478  0.85770596  0.66795820     0.08800
H483        H  0.30932967  0.81474620  0.71051883     0.12100
H484        H  0.21022646  0.78501286  0.67697964     0.14000
C485        C  0.69864965  0.74840006  0.20301032    -0.01600
C486        C  0.68281027  0.77898906  0.19437160    -0.09600
C487        C  0.65885792  0.78016785  0.16866764    -0.18400
C488        C  0.64953896  0.75047290  0.15089219     0.04000
C489        C  0.66497550  0.71929112  0.16040322     0.18200
C490        C  0.68959702  0.71860892  0.18588559    -0.19800
C491        C  0.65556075  0.68894413  0.14460003    -0.21100
C492        C  0.63091923  0.68882873  0.11964591    -0.19600
C493        C  0.61557473  0.71915648  0.10936167     0.19600
C494        C  0.62511469  0.75050899  0.12442070     0.01700
C495        C  0.60988278  0.78055726  0.11220892    -0.14400
C496        C  0.58547119  0.77940358  0.08697265    -0.12100
C497        C  0.57521651  0.74838584  0.07296596     0.01200
C498        C  0.59066698  0.71832689  0.08410871    -0.24300
H499        H  0.68927986  0.80235074  0.20726762     0.09200
H500        H  0.64781893  0.80466514  0.16365855     0.12800
H501        H  0.70136648  0.69470894  0.19275008     0.11500
H502        H  0.66709393  0.66505364  0.15183660     0.12700
H503        H  0.62392654  0.66484686  0.10819313     0.11700
H504        H  0.61639618  0.80543826  0.12144795     0.08800
H505        H  0.57433705  0.80309794  0.07862818     0.12100
H506        H  0.58332923  0.69420782  0.07313871     0.14000
C507        C  0.74894898  0.79954443  0.30391265    -0.01600
C508        C  0.71934846  0.81814945  0.30961781    -0.09600
C509        C  0.71835448  0.84377155  0.33369455    -0.18400
C510        C  0.74721343  0.85196792  0.35294771     0.04000
C511        C  0.77747183  0.83350137  0.34670117     0.18200
C512        C  0.77798449  0.80731419  0.32260640    -0.19800
C513        C  0.80700060  0.84141367  0.36443315    -0.21100
C514        C  0.80709524  0.86725127  0.38836443    -0.19600
C515        C  0.77753625  0.88545797  0.39549734     0.19600
C516        C  0.74710322  0.87787998  0.37803432     0.01700
C517        C  0.71773297  0.89635038  0.38668448    -0.14400
C518        C  0.71852005  0.92126810  0.41145328    -0.12100
C519        C  0.74852446  0.92892767  0.42841061     0.01200
C520        C  0.77806921  0.91103518  0.42021212    -0.24300
H521        H  0.69656255  0.81271587  0.29553496     0.09200
H522        H  0.69454589  0.85683117  0.33632531     0.12800
H523        H  0.80115754  0.79331931  0.31806806     0.11500
H524        H  0.83021629  0.82759286  0.35968010     0.12700
H525        H  0.83037939  0.87283365  0.40159491     0.11700
H526        H  0.69350183  0.89199162  0.37509424     0.08800
H527        H  0.69535405  0.93473981  0.41724916     0.12100
H528        H  0.80138866  0.91664739  0.43340419     0.14000
C529        C  0.19520138  0.70343866  0.25081853    -0.01600
C530        C  0.17357805  0.70106805  0.27890194    -0.09600
C531        C  0.14847747  0.67602599  0.28068957    -0.18400
C532        C  0.14402195  0.65239089  0.25421648     0.04000
C533        C  0.16559402  0.65533290  0.22552467     0.18200
C534        C  0.19082837  0.68047569  0.22416383    -0.19800
C535        C  0.16196272  0.63311242  0.19826785    -0.21100
C536        C  0.13729746  0.60796266  0.19876988    -0.19600
C537        C  0.11587480  0.60410882  0.22670925     0.19600
C538        C  0.11901691  0.62600837  0.25503353     0.01700
C539        C  0.09718784  0.62023165  0.28292081    -0.14400
C540        C  0.07327811  0.59393170  0.28251485    -0.12100
C541        C  0.06997396  0.57291423  0.25422596     0.01200
C542        C  0.09137271  0.57825998  0.22643481    -0.24300
H543        H  0.17617827  0.71849250  0.29985801     0.09200
H544        H  0.13292183  0.67588974  0.30308118     0.12800
H545        H  0.20712108  0.68209792  0.20213849     0.11500
H546        H  0.17827957  0.63525426  0.17631157     0.12700
H547        H  0.13508873  0.59125137  0.17717628     0.11700
H548        H  0.09812813  0.63542079  0.30549295     0.08800
H549        H  0.05696791  0.59033909  0.30427198     0.12100
H550        H  0.08926012  0.56188418  0.20455915     0.14000
C551        C  0.80470522  0.29334891  0.23915110    -0.01600
C552        C  0.81186995  0.31194941  0.20974810    -0.09600
C553        C  0.83700229  0.33698521  0.20942079    -0.18400
C554        C  0.85572438  0.34463348  0.23881583     0.04000
C555        C  0.84836157  0.32571208  0.26858632     0.18200
C556        C  0.82338211  0.30023450  0.26840174    -0.19800
C557        C  0.86563978  0.33262078  0.29856345    -0.21100
C558        C  0.88974578  0.35834289  0.29983881    -0.19600
C559        C  0.89753707  0.37756027  0.27106290     0.19600
C560        C  0.88104427  0.37067049  0.23996643     0.01700
C561        C  0.89055898  0.39027622  0.21149268    -0.14400
C562        C  0.91484809  0.41596672  0.21399107    -0.12100
C563        C  0.93045852  0.42323462  0.24486715     0.01200
C564        C  0.92172177  0.40373221  0.27328273    -0.24300
H565        H  0.79801582  0.30711892  0.18672460     0.09200
H566        H  0.84082903  0.35019548  0.18585820     0.12800
H567        H  0.81804140  0.28619070  0.29140114     0.11500
H568        H  0.86017136  0.31828456  0.32134340     0.12700
H569        H  0.90235295  0.36328616  0.32356631     0.11700
H570        H  0.87977559  0.38636288  0.18687829     0.08800
H571        H  0.92121206  0.43042962  0.19154139     0.12100
H572        H  0.93388755  0.40879294  0.29722719     0.14000
C573        C  0.79905628  0.69614467  0.25418131    -0.01600
C574        C  0.80487042  0.67764138  0.22460541    -0.09600
C575        C  0.82937559  0.65233309  0.22343518    -0.18400
C576        C  0.84894824  0.64430625  0.25212613     0.04000
C577        C  0.84297727  0.66303514  0.28222124     0.18200
C578        C  0.81836566  0.68883310  0.28293453    -0.19800
C579        C  0.86156556  0.65583272  0.31137703    -0.21100
C580        C  0.88608072  0.63046876  0.31125841    -0.19600
C581        C  0.89273596  0.61176677  0.28193733     0.19600
C582        C  0.87423481  0.61843738  0.25194442     0.01700
C583        C  0.88198272  0.59902671  0.22295462    -0.14400
C584        C  0.90732961  0.57453552  0.22353017    -0.12100
C585        C  0.92569021  0.56811984  0.25296104     0.01200
C586        C  0.91801056  0.58659442  0.28227356    -0.24300
H587        H  0.79056134  0.68291219  0.20194054     0.09200
H588        H  0.83221364  0.63954059  0.19961894     0.12800
H589        H  0.81397732  0.70292426  0.30602620     0.11500
H590        H  0.85712127  0.66992487  0.33444563     0.12700
H591        H  0.90005701  0.62556278  0.33422737     0.11700
H592        H  0.86916489  0.60221264  0.19925819     0.08800
H593        H  0.91250040  0.56042103  0.20064431     0.12100
H594        H  0.93214474  0.58185930  0.30519407     0.14000
C595        C  0.30174685  0.24679541  0.19566913    -0.01600
C596        C  0.31693115  0.21590081  0.18695372    -0.09600
C597        C  0.34132261  0.21440168  0.16145592    -0.18400
C598        C  0.35180026  0.24408486  0.14408974     0.04000
C599        C  0.33681357  0.27551511  0.15357190     0.18200
C600        C  0.31172469  0.27650989  0.17876250    -0.19800
C601        C  0.34715517  0.30582498  0.13808378    -0.21100
C602        C  0.37221765  0.30567248  0.11340324    -0.19600
C603        C  0.38714516  0.27514095  0.10318324     0.19600
C604        C  0.37687316  0.24381664  0.11802044     0.01700
C605        C  0.39208373  0.21363433  0.10599685    -0.14400
C606        C  0.41686377  0.21464730  0.08084010    -0.12100
C607        C  0.42745233  0.24565498  0.06688769     0.01200
C608        C  0.41232233  0.27579870  0.07811814    -0.24300
H609        H  0.30963388  0.19259933  0.19968687     0.09200
H610        H  0.35176716  0.18967967  0.15627659     0.12800
H611        H  0.30041501  0.30060941  0.18570417     0.11500
H612        H  0.33597518  0.32988016  0.14531488     0.12700
H613        H  0.37987089  0.32961776  0.10210693     0.11700
H614        H  0.38525796  0.18879712  0.11531201     0.08800
H615        H  0.42792580  0.19094156  0.07244145     0.12100
H616        H  0.42000831  0.29992644  0.06721095     0.14000
C617        C  0.25327808  0.19898052  0.29997149    -0.01600
C618        C  0.28078034  0.17665709  0.30218737    -0.09600
C619        C  0.28213905  0.15176369  0.32724000    -0.18400
C620        C  0.25577354  0.14806210  0.35116648     0.04000
C621        C  0.22764647  0.17038585  0.34869687     0.18200
C622        C  0.22679331  0.19572750  0.32351041    -0.19800
C623        C  0.20040284  0.16702692  0.37117247    -0.21100
C624        C  0.20029757  0.14169548  0.39580432    -0.19600
C625        C  0.22775162  0.11949941  0.39907872     0.19600
C626        C  0.25616389  0.12277665  0.37716502     0.01700
C627        C  0.28387347  0.10074903  0.38240348    -0.14400
C628        C  0.28321883  0.07630365  0.40793172    -0.12100
C629        C  0.25490055  0.07249465  0.42891401     0.01200
C630        C  0.22712775  0.09415700  0.42429875    -0.24300
H631        H  0.30159848  0.17833461  0.28440905     0.09200
H632        H  0.30403024  0.13553569  0.32683096     0.12800
H633        H  0.20520828  0.21260166  0.32199238     0.11500
H634        H  0.17882982  0.18388760  0.36945748     0.12700
H635        H  0.17865114  0.13957897  0.41254901     0.11700
H636        H  0.30667151  0.10196099  0.36750029     0.08800
H637        H  0.30501500  0.05996199  0.41101207     0.12100
H638        H  0.20527432  0.09171273  0.44075287     0.14000
C639        C  0.07351431  0.42739915  0.24701437    -0.01600
C640        C  0.08948208  0.41932515  0.21641912    -0.09600
C641        C  0.11445803  0.39428937  0.21495540    -0.18400
C642        C  0.12429101  0.37623631  0.24423820     0.04000
C643        C  0.10778138  0.38431796  0.27514784     0.18200
C644        C  0.08287558  0.40971958  0.27627989    -0.19800
C645        C  0.11615763  0.36697651  0.30482391    -0.21100
C646        C  0.14068450  0.34173867  0.30457347    -0.19600
C647        C  0.15765795  0.33335152  0.27469072     0.19600
C648        C  0.14984473  0.35052370  0.24406120     0.01700
C649        C  0.16817272  0.34134385  0.21473859    -0.14400
C650        C  0.19326646  0.31643275  0.21591728    -0.12100
C651        C  0.20074080  0.29948348  0.24613719     0.01200
C652        C  0.18262274  0.30798083  0.27538479    -0.24300
H653        H  0.08272239  0.43249133  0.19337799     0.09200
H654        H  0.12546186  0.38960520  0.19048999     0.12800
H655        H  0.07055484  0.41552293  0.30007255     0.11500
H656        H  0.10361084  0.37295746  0.32844286     0.12700
H657        H  0.14655174  0.32879671  0.32800409     0.11700
H658        H  0.16393463  0.35309100  0.19053790     0.08800
H659        H  0.20671972  0.31023702  0.19287196     0.12100
H660        H  0.18832844  0.29520091  0.29895750     0.14000
loop_ 
_geom_bond_atom_site_label_1 
_geom_bond_atom_site_label_2 
_geom_bond_distance 
_geom_bond_site_symmetry_2 
_ccdc_geom_bond_type 
C1            N2   1.359       .  A
C1            N6   1.361       .  A
C1          C617   1.487       .  S
N2            C3   1.357       .  A
C3            N4   1.357       .  A
C3          C595   1.478       .  S
N4            C5   1.360       .  A
C5            N6   1.362       .  A
C5          C651   1.482       .  S
O7          Ni15   1.927       .  S
O7           C17   1.284       .  A
O8          Ni15   1.926   1_455  S
O8           C18   1.283       .  A
O9          Ni15   1.921       .  S
O9           C19   1.281       .  A
O10         Ni15   1.921   1_455  S
O10          C20   1.283       .  A
O11         Ni16   1.915       .  S
O11          C20   1.281       .  A
O12         Ni16   1.914   1_655  S
O12          C19   1.282       .  A
O13         Ni16   1.914       .  S
O13          C18   1.281       .  A
O14         Ni16   1.914   1_655  S
O14          C17   1.281       .  A
Ni15        Ni16   2.386   1_655  S
C17         C563   1.485       .  S
C18         C541   1.482       .  S
C19         C585   1.480       .  S
C20         C639   1.483       .  S
C21          N22   1.360       .  A
C21          N26   1.360       .  A
C21         C573   1.480       .  S
N22          C23   1.360       .  A
C23          N24   1.358       .  A
C23         C507   1.478       .  S
N24          C25   1.356       .  A
C25          N26   1.356       .  A
C25         C485   1.479       .  S
O27         Ni35   1.925   1_545  S
O27          C37   1.282       .  A
O28         Ni35   1.921       .  S
O28          C38   1.282       .  A
O29         Ni35   1.913   1_545  S
O29          C39   1.281       .  A
O30         Ni35   1.914       .  S
O30          C40   1.281       .  A
O31         Ni36   1.918   1_565  S
O31          C40   1.281       .  A
O32         Ni36   1.917       .  S
O32          C39   1.281       .  A
O33         Ni36   1.913   1_565  S
O33          C38   1.281       .  A
O34         Ni36   1.915       .  S
O34          C37   1.282       .  A
Ni35        Ni36   2.388   1_565  S
C37         C629   1.481       .  S
C38         C463   1.479       .  S
C39         C453   1.475       .  S
C40         C431   1.477       .  S
O41         Ni49   1.916   1_565  S
O41          C51   1.281       .  A
O42         Ni49   1.912       .  S
O42          C52   1.281       .  A
O43         Ni49   1.918   1_565  S
O43          C53   1.282       .  A
O44         Ni49   1.919       .  S
O44          C54   1.282       .  A
O45         Ni50   1.914       .  S
O45          C54   1.281       .  A
O46         Ni50   1.910   1_565  S
O46          C53   1.281       .  A
O47         Ni50   1.909       .  S
O47          C52   1.280       .  A
O48         Ni50   1.906   1_565  S
O48          C51   1.281       .  A
Ni49        Ni50   2.388       .  S
C51         C519   1.475       .  S
C52         C409   1.472       .  S
C53         C375   1.477       .  S
C54         C365   1.479       .  S
C55          N56   1.359       .  A
C55          N60   1.357       .  A
C55         C309   1.479       .  S
N56          C57   1.361       .  A
C57          N58   1.360       .  A
C57         C343   1.484       .  S
N58          C59   1.359       .  A
C59          N60   1.357       .  A
C59         C475   1.482       .  S
O61         Ni69   1.911   1_455  S
O61          C71   1.281       .  A
O62         Ni69   1.909       .  S
O62          C72   1.280       .  A
O63         Ni69   1.918   1_455  S
O63          C73   1.282       .  A
O64         Ni69   1.915       .  S
O64          C74   1.281       .  A
O65         Ni70   1.914       .  S
O65          C74   1.281       .  A
O66         Ni70   1.914   1_455  S
O66          C73   1.281       .  A
O67         Ni70   1.914       .  S
O67          C72   1.281       .  A
O68         Ni70   1.915   1_455  S
O68          C71   1.281       .  A
Ni69        Ni70   2.389       .  S
C71         C243   1.474       .  S
C72         C277   1.474       .  S
C73         C331   1.479       .  S
C74         C299   1.476       .  S
C75          N76   1.361       .  A
C75          N80   1.360       .  A
C75         C287   1.478       .  S
N76          C77   1.358       .  A
C77          N78   1.352       .  A
C77         C397   1.475       .  S
N78          C79   1.352       .  A
C79          N80   1.357       .  A
C79         C233   1.469       .  S
O81         Ni89   1.909   1_556  S
O81          C91   1.280       .  A
O82         Ni89   1.910       .  S
O82          C92   1.281       .  A
O83         Ni89   1.918   1_556  S
O83          C93   1.282       .  A
O84         Ni89   1.920       .  S
O84          C94   1.283       .  A
O85         Ni90   1.909       .  S
O85          C94   1.280       .  A
O86         Ni90   1.907   1_556  S
O86          C93   1.279       .  A
O87         Ni90   1.925       .  S
O87          C92   1.283       .  A
O88         Ni90   1.924   1_556  S
O88          C91   1.283       .  A
Ni89        Ni90   2.387       .  S
C91         C321   1.481       .  S
C92         C497   1.483       .  S
C93         C177   1.473       .  S
C94         C199   1.477       .  S
O95        Ni103   1.911       .  S
O95         C105   1.280       .  A
O96        Ni103   1.915   1_554  S
O96         C106   1.281       .  A
O97        Ni103   1.919   1_554  S
O97         C107   1.282       .  A
O98        Ni103   1.918       .  S
O98         C108   1.282       .  A
O99        Ni104   1.916       .  S
O99         C108   1.282       .  A
O100       Ni104   1.916   1_554  S
O100        C107   1.281       .  A
O101       Ni104   1.913   1_554  S
O101        C106   1.281       .  A
O102       Ni104   1.909       .  S
O102        C105   1.281       .  A
Ni103      Ni104   2.387       .  S
C105        C221   1.474       .  S
C106        C607   1.479       .  S
C107        C155   1.480       .  S
C108        C145   1.481       .  S
C109        N110   1.356       .  A
C109        N114   1.356       .  A
C109        C387   1.477       .  S
N110        C111   1.358       .  A
C111        N112   1.358       .  A
C111        C265   1.475       .  S
N112        C113   1.358       .  A
C113        N114   1.356       .  A
C113        C189   1.477       .  S
C115        N116   1.361       .  A
C115        N120   1.361       .  A
C115        C551   1.486       .  S
N116        C117   1.360       .  A
C117        N118   1.358       .  A
C117        C353   1.485       .  S
N118        C119   1.358       .  A
C119        N120   1.360       .  A
C119        C167   1.484       .  S
C121        N122   1.356       .  A
C121        N126   1.358       .  A
C121        C441   1.482       .  S
N122        C123   1.356       .  A
C123        N124   1.358       .  A
C123        C255   1.480       .  S
N124        C125   1.359       .  A
C125        N126   1.360       .  A
C125        C133   1.480       .  S
C127        N128   1.358       .  A
C127        N132   1.360       .  A
C127        C211   1.483       .  S
N128        C129   1.357       .  A
C129        N130   1.360       .  A
C129        C419   1.484       .  S
N130        C131   1.359       .  A
C131        N132   1.360       .  A
C131        C529   1.487       .  S
C133        C134   1.401       .  A
C133        C138   1.401       .  A
C134        C135   1.396       .  A
C134        H147   1.083       .  S
C135        C136   1.415       .  A
C135        H148   1.077       .  S
C136        C142   1.430       .  A
C136        C137   1.422       .  A
C137        C139   1.399       .  A
C137        C138   1.403       .  A
C138        H149   1.084       .  S
C139        C140   1.389       .  A
C139        H150   1.084       .  S
C140        C141   1.399       .  A
C140        H151   1.084       .  S
C141        C142   1.422       .  A
C141        C146   1.404       .  A
C142        C143   1.415       .  A
C143        C144   1.397       .  A
C143        H152   1.077       .  S
C144        C145   1.401       .  A
C144        H153   1.083       .  S
C145        C146   1.402       .  A
C146        H154   1.084       .  S
C155        C156   1.400       .  A
C155        C160   1.402       .  A
C156        C157   1.397       .  A
C156        H169   1.083       .  S
C157        C158   1.415       .  A
C157        H170   1.077       .  S
C158        C164   1.431       .  A
C158        C159   1.422       .  A
C159        C161   1.400       .  A
C159        C160   1.406       .  A
C160        H171   1.084       .  S
C161        C162   1.390       .  A
C161        H172   1.084       .  S
C162        C163   1.400       .  A
C162        H173   1.084       .  S
C163        C164   1.423       .  A
C163        C168   1.407       .  A
C164        C165   1.414       .  A
C165        C166   1.396       .  A
C165        H174   1.077       .  S
C166        C167   1.402       .  A
C166        H175   1.083       .  S
C167        C168   1.403       .  A
C168        H176   1.084       .  S
C177        C178   1.399       .  A
C177        C182   1.400       .  A
C178        C179   1.393       .  A
C178        H191   1.083       .  S
C179        C180   1.414       .  A
C179        H192   1.077       .  S
C180        C186   1.427       .  A
C180        C181   1.423       .  A
C181        C183   1.399       .  A
C181        C182   1.403       .  A
C182        H193   1.085       .  S
C183        C184   1.388       .  A
C183        H194   1.084       .  S
C184        C185   1.399       .  A
C184        H195   1.084       .  S
C185        C186   1.421       .  A
C185        C190   1.401       .  A
C186        C187   1.415       .  A
C187        C188   1.394       .  A
C187        H196   1.077       .  S
C188        C189   1.400       .  A
C188        H197   1.083       .  S
C189        C190   1.402       .  A
C190        H198   1.084       .  S
C199        C200   1.401       .  A
C199        C204   1.400       .  A
C200        C201   1.395       .  A
C200        H213   1.083       .  S
C201        C202   1.414       .  A
C201        H214   1.077       .  S
C202        C208   1.429       .  A
C202        C203   1.423       .  A
C203        C205   1.399       .  A
C203        C204   1.405       .  A
C204        H215   1.084       .  S
C205        C206   1.389       .  A
C205        H216   1.084       .  S
C206        C207   1.400       .  A
C206        H217   1.084       .  S
C207        C208   1.421       .  A
C207        C212   1.404       .  A
C208        C209   1.415       .  A
C209        C210   1.397       .  A
C209        H218   1.077       .  S
C210        C211   1.401       .  A
C210        H219   1.083       .  S
C211        C212   1.403       .  A
C212        H220   1.084       .  S
C221        C222   1.399       .  A
C221        C226   1.402       .  A
C222        C223   1.390       .  A
C222        H235   1.083       .  S
C223        C224   1.414       .  A
C223        H236   1.077       .  S
C224        C230   1.423       .  A
C224        C225   1.421       .  A
C225        C227   1.400       .  A
C225        C226   1.403       .  A
C226        H237   1.084       .  S
C227        C228   1.390       .  A
C227        H238   1.084       .  S
C228        C229   1.399       .  A
C228        H239   1.084       .  S
C229        C230   1.423       .  A
C229        C234   1.404       .  A
C230        C231   1.412       .  A
C231        C232   1.388       .  A
C231        H240   1.076       .  S
C232        C233   1.398       .  A
C232        H241   1.084       .  S
C233        C234   1.399       .  A
C234        H242   1.085       .  S
C243        C244   1.399       .  A
C243        C248   1.400       .  A
C244        C245   1.394       .  A
C244        H257   1.083       .  S
C245        C246   1.414       .  A
C245        H258   1.077       .  S
C246        C252   1.427       .  A
C246        C247   1.422       .  A
C247        C249   1.399       .  A
C247        C248   1.403       .  A
C248        H259   1.085       .  S
C249        C250   1.389       .  A
C249        H260   1.084       .  S
C250        C251   1.399       .  A
C250        H261   1.084       .  S
C251        C252   1.422       .  A
C251        C256   1.404       .  A
C252        C253   1.413       .  A
C253        C254   1.393       .  A
C253        H262   1.077       .  S
C254        C255   1.402       .  A
C254        H263   1.083       .  S
C255        C256   1.402       .  A
C256        H264   1.084       .  S
C265        C266   1.399       .  A
C265        C270   1.402       .  A
C266        C267   1.392       .  A
C266        H279   1.083       .  S
C267        C268   1.413       .  A
C267        H280   1.077       .  S
C268        C274   1.425       .  A
C268        C269   1.422       .  A
C269        C271   1.400       .  A
C269        C270   1.403       .  A
C270        H281   1.084       .  S
C271        C272   1.390       .  A
C271        H282   1.084       .  S
C272        C273   1.400       .  A
C272        H283   1.084       .  S
C273        C274   1.422       .  A
C273        C278   1.403       .  A
C274        C275   1.413       .  A
C275        C276   1.392       .  A
C275        H284   1.077       .  S
C276        C277   1.399       .  A
C276        H285   1.083       .  S
C277        C278   1.401       .  A
C278        H286   1.084       .  S
C287        C288   1.400       .  A
C287        C292   1.402       .  A
C288        C289   1.394       .  A
C288        H301   1.083       .  S
C289        C290   1.414       .  A
C289        H302   1.077       .  S
C290        C296   1.428       .  A
C290        C291   1.422       .  A
C291        C293   1.399       .  A
C291        C292   1.403       .  A
C292        H303   1.084       .  S
C293        C294   1.389       .  A
C293        H304   1.084       .  S
C294        C295   1.399       .  A
C294        H305   1.084       .  S
C295        C296   1.422       .  A
C295        C300   1.403       .  A
C296        C297   1.414       .  A
C297        C298   1.394       .  A
C297        H306   1.077       .  S
C298        C299   1.399       .  A
C298        H307   1.083       .  S
C299        C300   1.401       .  A
C300        H308   1.084       .  S
C309        C310   1.400       .  A
C309        C314   1.401       .  A
C310        C311   1.395       .  A
C310        H323   1.083       .  S
C311        C312   1.414       .  A
C311        H324   1.077       .  S
C312        C318   1.429       .  A
C312        C313   1.422       .  A
C313        C315   1.399       .  A
C313        C314   1.405       .  A
C314        H325   1.084       .  S
C315        C316   1.390       .  A
C315        H326   1.084       .  S
C316        C317   1.399       .  A
C316        H327   1.084       .  S
C317        C318   1.422       .  A
C317        C322   1.406       .  A
C318        C319   1.414       .  A
C319        C320   1.395       .  A
C319        H328   1.077       .  S
C320        C321   1.402       .  A
C320        H329   1.083       .  S
C321        C322   1.402       .  A
C322        H330   1.084       .  S
C331        C332   1.400       .  A
C331        C336   1.402       .  A
C332        C333   1.395       .  A
C332        H345   1.083       .  S
C333        C334   1.414       .  A
C333        H346   1.077       .  S
C334        C340   1.429       .  A
C334        C335   1.423       .  A
C335        C337   1.399       .  A
C335        C336   1.406       .  A
C336        H347   1.085       .  S
C337        C338   1.390       .  A
C337        H348   1.084       .  S
C338        C339   1.400       .  A
C338        H349   1.084       .  S
C339        C340   1.422       .  A
C339        C344   1.405       .  A
C340        C341   1.415       .  A
C341        C342   1.396       .  A
C341        H350   1.077       .  S
C342        C343   1.401       .  A
C342        H351   1.083       .  S
C343        C344   1.404       .  A
C344        H352   1.084       .  S
C353        C354   1.402       .  A
C353        C358   1.402       .  A
C354        C355   1.397       .  A
C354        H367   1.083       .  S
C355        C356   1.414       .  A
C355        H368   1.076       .  S
C356        C362   1.431       .  A
C356        C357   1.422       .  A
C357        C359   1.399       .  A
C357        C358   1.405       .  A
C358        H369   1.084       .  S
C359        C360   1.389       .  A
C359        H370   1.084       .  S
C360        C361   1.399       .  A
C360        H371   1.084       .  S
C361        C362   1.422       .  A
C361        C366   1.405       .  A
C362        C363   1.415       .  A
C363        C364   1.397       .  A
C363        H372   1.076       .  S
C364        C365   1.400       .  A
C364        H373   1.083       .  S
C365        C366   1.401       .  A
C366        H374   1.084       .  S
C375        C376   1.400       .  A
C375        C380   1.402       .  A
C376        C377   1.392       .  A
C376        H389   1.083       .  S
C377        C378   1.413       .  A
C377        H390   1.077       .  S
C378        C384   1.426       .  A
C378        C379   1.422       .  A
C379        C381   1.400       .  A
C379        C380   1.405       .  A
C380        H391   1.084       .  S
C381        C382   1.390       .  A
C381        H392   1.084       .  S
C382        C383   1.400       .  A
C382        H393   1.084       .  S
C383        C384   1.422       .  A
C383        C388   1.404       .  A
C384        C385   1.414       .  A
C385        C386   1.392       .  A
C385        H394   1.077       .  S
C386        C387   1.400       .  A
C386        H395   1.083       .  S
C387        C388   1.402       .  A
C388        H396   1.084       .  S
C397        C398   1.401       .  A
C397        C402   1.399       .  A
C398        C399   1.391       .  A
C398        H411   1.083       .  S
C399        C400   1.412       .  A
C399        H412   1.077       .  S
C400        C406   1.425       .  A
C400        C401   1.423       .  A
C401        C403   1.398       .  A
C401        C402   1.402       .  A
C402        H413   1.084       .  S
C403        C404   1.388       .  A
C403        H414   1.084       .  S
C404        C405   1.399       .  A
C404        H415   1.084       .  S
C405        C406   1.421       .  A
C405        C410   1.401       .  A
C406        C407   1.415       .  A
C407        C408   1.393       .  A
C407        H416   1.077       .  S
C408        C409   1.399       .  A
C408        H417   1.083       .  S
C409        C410   1.400       .  A
C410        H418   1.084       .  S
C419        C420   1.403       .  A
C419        C424   1.402       .  A
C420        C421   1.397       .  A
C420        H433   1.083       .  S
C421        C422   1.414       .  A
C421        H434   1.077       .  S
C422        C428   1.430       .  A
C422        C423   1.422       .  A
C423        C425   1.399       .  A
C423        C424   1.403       .  A
C424        H435   1.084       .  S
C425        C426   1.388       .  A
C425        H436   1.084       .  S
C426        C427   1.399       .  A
C426        H437   1.084       .  S
C427        C428   1.422       .  A
C427        C432   1.402       .  A
C428        C429   1.416       .  A
C429        C430   1.398       .  A
C429        H438   1.077       .  S
C430        C431   1.400       .  A
C430        H439   1.083       .  S
C431        C432   1.400       .  A
C432        H440   1.085       .  S
C441        C442   1.402       .  A
C441        C446   1.403       .  A
C442        C443   1.392       .  A
C442        H455   1.083       .  S
C443        C444   1.412       .  A
C443        H456   1.077       .  S
C444        C450   1.427       .  A
C444        C445   1.422       .  A
C445        C447   1.400       .  A
C445        C446   1.406       .  A
C446        H457   1.084       .  S
C447        C448   1.391       .  A
C447        H458   1.084       .  S
C448        C449   1.400       .  A
C448        H459   1.084       .  S
C449        C450   1.422       .  A
C449        C454   1.405       .  A
C450        C451   1.414       .  A
C451        C452   1.394       .  A
C451        H460   1.077       .  S
C452        C453   1.399       .  A
C452        H461   1.083       .  S
C453        C454   1.402       .  A
C454        H462   1.084       .  S
C463        C464   1.400       .  A
C463        C468   1.401       .  A
C464        C465   1.396       .  A
C464        H477   1.083       .  S
C465        C466   1.415       .  A
C465        H478   1.077       .  S
C466        C472   1.429       .  A
C466        C467   1.423       .  A
C467        C469   1.399       .  A
C467        C468   1.405       .  A
C468        H479   1.084       .  S
C469        C470   1.389       .  A
C469        H480   1.084       .  S
C470        C471   1.399       .  A
C470        H481   1.084       .  S
C471        C472   1.422       .  A
C471        C476   1.404       .  A
C472        C473   1.414       .  A
C473        C474   1.395       .  A
C473        H482   1.077       .  S
C474        C475   1.402       .  A
C474        H483   1.083       .  S
C475        C476   1.402       .  A
C476        H484   1.084       .  S
C485        C486   1.400       .  A
C485        C490   1.402       .  A
C486        C487   1.395       .  A
C486        H499   1.083       .  S
C487        C488   1.415       .  A
C487        H500   1.077       .  S
C488        C494   1.429       .  A
C488        C489   1.422       .  A
C489        C491   1.400       .  A
C489        C490   1.406       .  A
C490        H501   1.084       .  S
C491        C492   1.391       .  A
C491        H502   1.084       .  S
C492        C493   1.400       .  A
C492        H503   1.084       .  S
C493        C494   1.422       .  A
C493        C498   1.408       .  A
C494        C495   1.413       .  A
C495        C496   1.394       .  A
C495        H504   1.077       .  S
C496        C497   1.402       .  A
C496        H505   1.083       .  S
C497        C498   1.403       .  A
C498        H506   1.084       .  S
C507        C508   1.400       .  A
C507        C512   1.403       .  A
C508        C509   1.390       .  A
C508        H521   1.083       .  S
C509        C510   1.413       .  A
C509        H522   1.078       .  S
C510        C516   1.425       .  A
C510        C511   1.422       .  A
C511        C513   1.400       .  A
C511        C512   1.406       .  A
C512        H523   1.085       .  S
C513        C514   1.392       .  A
C513        H524   1.084       .  S
C514        C515   1.400       .  A
C514        H525   1.084       .  S
C515        C516   1.422       .  A
C515        C520   1.406       .  A
C516        C517   1.413       .  A
C517        C518   1.389       .  A
C517        H526   1.078       .  S
C518        C519   1.399       .  A
C518        H527   1.083       .  S
C519        C520   1.403       .  A
C520        H528   1.085       .  S
C529        C530   1.403       .  A
C529        C534   1.402       .  A
C530        C531   1.399       .  A
C530        H543   1.083       .  S
C531        C532   1.415       .  A
C531        H544   1.077       .  S
C532        C538   1.433       .  A
C532        C533   1.423       .  A
C533        C535   1.399       .  A
C533        C534   1.405       .  A
C534        H545   1.084       .  S
C535        C536   1.388       .  A
C535        H546   1.084       .  S
C536        C537   1.399       .  A
C536        H547   1.084       .  S
C537        C538   1.422       .  A
C537        C542   1.404       .  A
C538        C539   1.417       .  A
C539        C540   1.401       .  A
C539        H548   1.077       .  S
C540        C541   1.401       .  A
C540        H549   1.083       .  S
C541        C542   1.401       .  A
C542        H550   1.085       .  S
C551        C552   1.402       .  A
C551        C556   1.404       .  A
C552        C553   1.398       .  A
C552        H565   1.083       .  S
C553        C554   1.415       .  A
C553        H566   1.077       .  S
C554        C560   1.432       .  A
C554        C555   1.422       .  A
C555        C557   1.400       .  A
C555        C556   1.406       .  A
C556        H567   1.084       .  S
C557        C558   1.390       .  A
C557        H568   1.084       .  S
C558        C559   1.399       .  A
C558        H569   1.084       .  S
C559        C560   1.423       .  A
C559        C564   1.407       .  A
C560        C561   1.414       .  A
C561        C562   1.397       .  A
C561        H570   1.077       .  S
C562        C563   1.402       .  A
C562        H571   1.083       .  S
C563        C564   1.402       .  A
C564        H572   1.084       .  S
C573        C574   1.399       .  A
C573        C578   1.404       .  A
C574        C575   1.391       .  A
C574        H587   1.083       .  S
C575        C576   1.413       .  A
C575        H588   1.076       .  S
C576        C582   1.428       .  A
C576        C577   1.422       .  A
C577        C579   1.401       .  A
C577        C578   1.408       .  A
C578        H589   1.084       .  S
C579        C580   1.392       .  A
C579        H590   1.084       .  S
C580        C581   1.401       .  A
C580        H591   1.084       .  S
C581        C582   1.422       .  A
C581        C586   1.408       .  A
C582        C583   1.414       .  A
C583        C584   1.392       .  A
C583        H592   1.076       .  S
C584        C585   1.399       .  A
C584        H593   1.083       .  S
C585        C586   1.404       .  A
C586        H594   1.084       .  S
C595        C596   1.400       .  A
C595        C600   1.401       .  A
C596        C597   1.395       .  A
C596        H609   1.083       .  S
C597        C598   1.414       .  A
C597        H610   1.077       .  S
C598        C604   1.429       .  A
C598        C599   1.423       .  A
C599        C601   1.399       .  A
C599        C600   1.405       .  A
C600        H611   1.085       .  S
C601        C602   1.389       .  A
C601        H612   1.084       .  S
C602        C603   1.399       .  A
C602        H613   1.084       .  S
C603        C604   1.422       .  A
C603        C608   1.403       .  A
C604        C605   1.415       .  A
C605        C606   1.395       .  A
C605        H614   1.077       .  S
C606        C607   1.401       .  A
C606        H615   1.083       .  S
C607        C608   1.402       .  A
C608        H616   1.084       .  S
C617        C618   1.402       .  A
C617        C622   1.405       .  A
C618        C619   1.394       .  A
C618        H631   1.083       .  S
C619        C620   1.413       .  A
C619        H632   1.077       .  S
C620        C626   1.430       .  A
C620        C621   1.422       .  A
C621        C623   1.401       .  A
C621        C622   1.409       .  A
C622        H633   1.084       .  S
C623        C624   1.393       .  A
C623        H634   1.084       .  S
C624        C625   1.401       .  A
C624        H635   1.084       .  S
C625        C626   1.423       .  A
C625        C630   1.410       .  A
C626        C627   1.414       .  A
C627        C628   1.394       .  A
C627        H636   1.077       .  S
C628        C629   1.400       .  A
C628        H637   1.083       .  S
C629        C630   1.404       .  A
C630        H638   1.084       .  S
C639        C640   1.402       .  A
C639        C644   1.402       .  A
C640        C641   1.397       .  A
C640        H653   1.083       .  S
C641        C642   1.415       .  A
C641        H654   1.077       .  S
C642        C648   1.431       .  A
C642        C643   1.422       .  A
C643        C645   1.399       .  A
C643        C644   1.405       .  A
C644        H655   1.084       .  S
C645        C646   1.389       .  A
C645        H656   1.084       .  S
C646        C647   1.399       .  A
C646        H657   1.084       .  S
C647        C648   1.423       .  A
C647        C652   1.405       .  A
C648        C649   1.415       .  A
C649        C650   1.397       .  A
C649        H658   1.077       .  S
C650        C651   1.402       .  A
C650        H659   1.083       .  S
C651        C652   1.401       .  A
C652        H660   1.084       .  S
