geometry optimzed in LAMMPS
_audit_creation_date              2020-11-30 
_audit_creation_method            'lammps2cif' 
_symmetry_space_group_name_H-M    'P1' 
_symmetry_Int_Tables_number       1 
_symmetry_cell_setting            triclinic 
loop_ 
_symmetry_equiv_pos_as_xyz 
  x,y,z 
_cell_length_a                    28.9534855 
_cell_length_b                    29.078050157735547 
_cell_length_c                    40.62164958040149 
_cell_angle_alpha                 90.54715654996274 
_cell_angle_beta                  90.64231378025065 
_cell_angle_gamma                 120.10966269107453 
loop_ 
_atom_site_label 
_atom_site_type_symbol 
_atom_site_fract_x 
_atom_site_fract_y 
_atom_site_fract_z 
_atom_site_charge 
O1          O  0.47019266  0.37787405  0.32147410    -0.75500
O2          O  0.41029348  0.33012425  0.28097017    -0.54400
C3          C  0.42646246  0.33721718  0.31110397     0.78300
O4          O  0.49820206  0.58472636  0.33529606    -0.60100
O5          O  0.54113083  0.63431859  0.29272711    -0.53100
C6          C  0.53683464  0.62814797  0.32363196     0.70300
O7          O  0.35673844  0.40984098  0.31478488    -0.74600
O8          O  0.34259581  0.35662347  0.27016715    -0.55200
C9          C  0.32960594  0.36495042  0.29848783     0.76300
O10         O  0.61677716  0.53183700  0.32613177    -0.59800
O11         O  0.63210952  0.60935855  0.30335595    -0.52900
C12         C  0.64057755  0.58302438  0.32536817     0.72900
Zr13       Zr  0.54465454  0.45492487  0.29633707     2.54700
O14         O  0.57326454  0.43456505  0.34814202    -0.80300
O15         O  0.59479799  0.41157674  0.28092489    -0.93700
Zr16       Zr  0.43481737  0.50121601  0.30329437     2.64700
O17         O  0.41058187  0.48652378  0.36108924    -0.98700
O18         O  0.37419427  0.53619518  0.29915674    -0.80800
O19         O  0.46023996  0.44076306  0.29040122    -0.84100
O20         O  0.52642418  0.52434344  0.30534022    -2.18800
O21         O  0.63423970  0.56767667  0.18748835    -0.67500
O22         O  0.64547382  0.62468881  0.22945126    -0.52100
C23         C  0.65936212  0.61453556  0.20193716     0.71300
O24         O  0.38198948  0.45035825  0.17261595    -0.60400
O25         O  0.35636345  0.37401713  0.20025503    -0.52400
C26         C  0.35308668  0.39985649  0.17583947     0.73100
O27         O  0.51354088  0.61528602  0.18635841    -0.71800
O28         O  0.58132597  0.65419456  0.22430857    -0.50500
C29         C  0.56039605  0.65265234  0.19599391     0.74500
O30         O  0.48220697  0.40229645  0.16494711    -0.67100
O31         O  0.43767500  0.34390608  0.20410423    -0.54300
C32         C  0.44406788  0.35628461  0.17392361     0.72800
Zr33       Zr  0.55409631  0.47638186  0.19931184     2.77500
O34         O  0.58350473  0.47935778  0.14296240    -0.97900
O35         O  0.60738771  0.43356544  0.20580001    -0.78700
Zr36       Zr  0.44656682  0.52586597  0.20573762     2.70100
O37         O  0.42414517  0.54780501  0.15235688    -0.80000
O38         O  0.38310470  0.55345761  0.22149448    -0.99000
Zr39       Zr  0.42425578  0.39848619  0.24227711     2.21500
Zr40       Zr  0.56618578  0.58212442  0.25985562     2.11100
O41         O  0.53621274  0.54590496  0.20589606    -2.47700
O42         O  0.46830204  0.46039130  0.20368560    -0.79700
O43         O  0.58929296  0.51443812  0.25272199    -0.71900
O44         O  0.40072085  0.46585361  0.24921852    -2.32900
O45         O  0.51388572  0.41493939  0.24328301    -2.29100
O46         O  0.47586770  0.56328876  0.25936225    -0.73700
H47         H  0.54033446  0.53865187  0.32691244     0.78300
H48         H  0.36272278  0.45171167  0.24744068     0.79400
H49         H  0.55456980  0.56729313  0.18743601     0.81600
H50         H  0.51603608  0.38290752  0.24065403     0.79200
H51         H  0.35060531  0.52142958  0.31832130     0.42300
H52         H  0.40336847  0.59268769  0.21994247     0.41200
H53         H  0.44609353  0.54147378  0.13643703     0.40900
H54         H  0.58227888  0.50964111  0.13294308     0.38800
H55         H  0.63953855  0.45984883  0.21838577     0.42000
H56         H  0.57538374  0.37614765  0.29111383     0.36700
H57         H  0.55498262  0.44346305  0.36539194     0.42900
H58         H  0.44261113  0.49009921  0.37255476     0.39300
H59         H  0.62205129  0.49129312  0.14501917     0.44200
H60         H  0.62871408  0.43089197  0.29374201     0.42900
H61         H  0.40884114  0.51824284  0.36830266     0.43100
H62         H  0.35699339  0.54148333  0.20290058     0.43400
O63         O  0.05150235  0.41301611  0.31598775    -0.75500
O64         O  0.01362376  0.35944225  0.27111935    -0.54400
C65         C  0.03511971  0.36837657  0.29975122     0.78300
O66         O  0.90785291  0.52914838  0.32059877    -0.60100
O67         O  0.96822043  0.60752523  0.29789838    -0.53100
C68         C  0.93354807  0.58032866  0.31960915     0.70300
O69         O  0.90476494  0.37784347  0.31847050    -0.74600
O70         O  0.91595749  0.33046193  0.27817550    -0.55200
C71         C  0.90893394  0.33799529  0.30837710     0.76300
O72         O  0.07988311  0.58554968  0.33437101    -0.59800
O73         O  0.08342760  0.63760540  0.29317040    -0.52900
C74         C  0.08249199  0.62874432  0.32387941     0.72900
Zr75       Zr  0.06191852  0.50283652  0.30294395     2.54700
O76         O  0.07269310  0.49464424  0.36177682    -0.80300
O77         O  0.15794301  0.53842174  0.30070702    -0.93700
Zr78       Zr  0.90455783  0.45281827  0.29167504     2.64700
O79         O  0.84546281  0.42396584  0.33882195    -0.98700
O80         O  0.81284010  0.41107057  0.27082441    -0.80800
O81         O  0.97637178  0.44082698  0.28838458    -0.84100
O82         O  0.99188359  0.52370919  0.30247958    -2.18800
O83         O  0.10039612  0.61529853  0.18581757    -0.67500
O84         O  0.06831169  0.65320839  0.22120984    -0.52100
C85         C  0.09009348  0.65224209  0.19403271     0.71300
O86         O  0.91650369  0.39812427  0.16192521    -0.60400
O87         O  0.90364087  0.34280822  0.20277894    -0.52400
C88         C  0.90883079  0.35283003  0.17233453     0.73100
O89         O  0.92804024  0.56302941  0.18205674    -0.71800
O90         O  0.96972039  0.61977741  0.22543997    -0.50500
C91         C  0.94728944  0.60922947  0.19694487     0.74500
O92         O  0.06572702  0.45111750  0.17175386    -0.67100
O93         O  0.01488888  0.37437279  0.19897209    -0.54300
C94         C  0.04392061  0.40042805  0.17474495     0.72800
Zr95       Zr  0.07761513  0.52641618  0.20563178     2.77500
O96         O  0.12789117  0.54594921  0.15486285    -0.97900
O97         O  0.16738424  0.55512806  0.22633695    -0.78700
Zr98       Zr  0.91990826  0.47377932  0.19476192     2.70100
O99         O  0.89994094  0.47890504  0.13696531    -0.80000
O100        O  0.82336478  0.43059282  0.19961667    -0.99000
Zr101      Zr  0.97257971  0.39879020  0.24086006     2.21500
Zr102      Zr  0.01063071  0.58143551  0.25678583     2.11100
O103        O  0.00706653  0.54525094  0.20320353    -2.47700
O104        O  0.99063989  0.45998389  0.20186461    -0.79700
O105        O  0.08327643  0.56446400  0.25871871    -0.71900
O106        O  0.89820854  0.41306657  0.23920097    -2.32900
O107        O  0.06310668  0.46726670  0.24967413    -2.29100
O108        O  0.92048063  0.51184011  0.24750938    -0.73700
H109        H  0.99145287  0.53788492  0.32374261     0.78300
H110        H  0.86417172  0.38080386  0.23616298     0.79400
H111        H  0.01026727  0.56678035  0.18459524     0.81600
H112        H  0.08752480  0.45381327  0.24893823     0.79200
H113        H  0.79459553  0.37541809  0.28077833     0.42300
H114        H  0.81405747  0.45644416  0.19052122     0.41200
H115        H  0.93465619  0.50521018  0.12766524     0.40900
H116        H  0.10861302  0.55613770  0.13891420     0.38800
H117        H  0.18563321  0.59445264  0.22632485     0.42000
H118        H  0.16179303  0.50674331  0.29731389     0.36700
H119        H  0.04213976  0.49544694  0.37189058     0.42900
H120        H  0.86925083  0.44009732  0.35832265     0.39300
H121        H  0.16193791  0.57924630  0.15961458     0.44200
H122        H  0.17091469  0.55036744  0.32358814     0.42900
H123        H  0.82485676  0.44270997  0.33726216     0.43100
H124        H  0.80917421  0.40116141  0.18312444     0.43400
O125        O  0.38485543  0.92094694  0.31601957    -0.75500
O126        O  0.34343198  0.94501816  0.27831455    -0.54400
C127        C  0.34667590  0.92885344  0.30697765     0.78300
O128        O  0.61114206  0.07934387  0.33335360    -0.60100
O129        O  0.65142164  0.05041822  0.29762584    -0.53100
C130        C  0.64750959  0.06772002  0.32623395     0.70300
O131        O  0.45212018  0.06787446  0.32952144    -0.74600
O132        O  0.38858395  0.04564503  0.28976387    -0.55200
C133        C  0.40581632  0.05907347  0.31953729     0.76300
O134        O  0.52910513  0.90601307  0.31157817    -0.59800
O135        O  0.60396789  0.94927727  0.28099858    -0.52900
C136        C  0.57841538  0.92109050  0.30555066     0.72900
Zr137      Zr  0.45740478  0.91833797  0.28722037     2.54700
O138        O  0.43020569  0.86042724  0.33468695    -0.80300
O139        O  0.40383277  0.82974796  0.26293421    -0.93700
Zr140      Zr  0.53348904  0.07612250  0.30498253     2.64700
O141        O  0.53267691  0.09784193  0.36301541    -0.98700
O142        O  0.58066896  0.17277934  0.30346735    -0.80800
O143        O  0.45956296  0.99780888  0.29020372    -0.84100
O144        O  0.53854329  0.99779990  0.29829864    -2.18800
O145        O  0.54774631  0.93614292  0.16967243    -0.67500
O146        O  0.61779800  0.97308230  0.20618470    -0.52100
C147        C  0.59633991  0.95032344  0.17833396     0.71300
O148        O  0.47447634  0.09213116  0.17673466    -0.60400
O149        O  0.41055970  0.07243392  0.21386310    -0.52400
C150        C  0.42783367  0.08318941  0.18452660     0.73100
O151        O  0.63248481  0.11084531  0.18507326    -0.71800
O152        O  0.66710445  0.07598612  0.22077468    -0.50500
C153        C  0.66703942  0.09695121  0.19317408     0.74500
O154        O  0.39094254  0.93573165  0.16627472    -0.67100
O155        O  0.35229266  0.96588207  0.20227744    -0.54300
C156        C  0.35342667  0.94508978  0.17450241     0.72800
Zr157      Zr  0.47158042  0.94232966  0.19199767     2.77500
O158        O  0.46448141  0.93698423  0.13205735    -0.97900
O159        O  0.42701441  0.84569811  0.19184228    -0.78700
Zr160      Zr  0.54976067  0.10060997  0.20948100     2.70100
O161        O  0.58289997  0.16412181  0.16484891    -0.80000
O162        O  0.58312588  0.18785628  0.23519013    -0.99000
Zr163      Zr  0.41683840  0.00790497  0.24661591     2.21500
Zr164      Zr  0.59095711  0.01150825  0.25035047     2.11100
O165        O  0.55330551  0.02192380  0.20044625    -2.47700
O166        O  0.47330598  0.01952593  0.20549046    -0.79700
O167        O  0.51023214  0.92866932  0.24040800    -0.71900
O168        O  0.49662061  0.09129271  0.25642228    -2.32900
O169        O  0.41587926  0.92594851  0.23820764    -2.29100
O170        O  0.59023992  0.09270941  0.25883812    -0.73700
H171        H  0.55246017  0.99266980  0.31851460     0.78300
H172        H  0.48938792  0.12004445  0.25920137     0.79400
H173        H  0.57223701  0.02454872  0.18055226     0.81600
H174        H  0.38025754  0.89643938  0.23454796     0.79200
H175        H  0.61620760  0.18391383  0.31341273     0.42300
H176        H  0.61959733  0.20990186  0.22663877     0.41200
H177        H  0.57456434  0.14215979  0.14450467     0.40900
H178        H  0.50028585  0.96361767  0.12430559     0.38800
H179        H  0.45648194  0.83771148  0.19159875     0.42000
H180        H  0.37193213  0.81209327  0.27691887     0.36700
H181        H  0.44363839  0.88485877  0.35405085     0.42900
H182        H  0.53093815  0.06769270  0.37515298     0.39300
H183        H  0.46085634  0.90215087  0.12621895     0.44200
H184        H  0.42421469  0.81161238  0.26798917     0.42900
H185        H  0.56873914  0.12834001  0.36800797     0.43100
H186        H  0.56196006  0.20214260  0.22475857     0.43400
C187        C  0.05360152  0.11019154  0.36341169     0.03000
C188        C  0.10959821  0.13669757  0.35677235    -0.13200
C189        C  0.13699325  0.19039324  0.34662228     0.00500
C190        C  0.10889241  0.21656673  0.34167038    -0.11700
C191        C  0.05511773  0.19320139  0.34781960     0.03000
C192        C  0.02655620  0.13940942  0.35773066    -0.11100
H193        H  0.13261190  0.11785294  0.36302254     0.08600
H194        H  0.13001696  0.25731441  0.33310036     0.06100
H195        H  0.98511064  0.12246592  0.36445319     0.05900
C196        C  0.10725502  0.22300444  0.05627714     0.03000
C197        C  0.16142206  0.24836478  0.06502376    -0.13200
C198        C  0.18571659  0.29848419  0.08020351     0.00500
C199        C  0.15718716  0.32508358  0.08396132    -0.11700
C200        C  0.10233324  0.29889462  0.07710594     0.03000
C201        C  0.07741900  0.24799973  0.06251983    -0.11100
H202        H  0.18342682  0.22760368  0.06235681     0.08600
H203        H  0.17541605  0.36231893  0.09789745     0.06100
H204        H  0.03471374  0.22676578  0.05807338     0.05900
C205        C  0.08958132  0.85816047  0.06253342     0.03000
C206        C  0.14552002  0.89188625  0.06877163    -0.13200
C207        C  0.17590439  0.87278515  0.08434209     0.00500
C208        C  0.15146136  0.81969088  0.09227051    -0.11700
C209        C  0.09602867  0.78863776  0.09227812     0.03000
C210        C  0.06425144  0.80713672  0.07691119    -0.11100
H211        H  0.16530829  0.93364084  0.06277507     0.08600
H212        H  0.17511960  0.80563610  0.10506429     0.06100
H213        H  0.02113572  0.78293340  0.07676810     0.05900
C214        C  0.88951319  0.09539723  0.08509489     0.03000
C215        C  0.91995138  0.15159123  0.08914635    -0.13200
C216        C  0.89366757  0.18145327  0.09289747     0.00500
C217        C  0.83803857  0.15470093  0.09191779    -0.11700
C218        C  0.80922690  0.09994282  0.09613065     0.03000
C219        C  0.83426380  0.06987734  0.09090844    -0.11100
H220        H  0.96303829  0.17159417  0.08938386     0.08600
H221        H  0.81818203  0.17733244  0.09674188     0.06100
H222        H  0.81130822  0.02704047  0.09266564     0.05900
C223        C  0.90365706  0.12219775  0.43450475     0.03000
C224        C  0.93134404  0.17104757  0.41786209    -0.13200
C225        C  0.90180421  0.19064306  0.40120441     0.00500
C226        C  0.84646493  0.16318699  0.40214636    -0.11700
C227        C  0.81897424  0.11170672  0.41314443     0.03000
C228        C  0.84694164  0.09161253  0.43043318    -0.11100
H229        H  0.97446906  0.19248164  0.41725597     0.08600
H230        H  0.82451949  0.17864816  0.38879234     0.06100
H231        H  0.82453680  0.05125574  0.43916192     0.05900
C232        C  0.22061589  0.12211905  0.43666158     0.03000
C233        C  0.24627234  0.17416197  0.42416883    -0.13200
C234        C  0.29626774  0.19396419  0.40904671     0.00500
C235        C  0.32143773  0.16380627  0.40880517    -0.11700
C236        C  0.29179760  0.10955015  0.41349751     0.03000
C237        C  0.24187307  0.08864402  0.42835165    -0.11100
H238        H  0.22707685  0.19782138  0.42523263     0.08600
H239        H  0.35974126  0.17964421  0.39682124     0.06100
H240        H  0.21909910  0.04626310  0.43241487     0.05900
C241        C  0.09652407  0.88642033  0.41134662     0.03000
C242        C  0.15076398  0.91612223  0.40307486    -0.13200
C243        C  0.17832345  0.89026063  0.39345581     0.00500
C244        C  0.15300357  0.83511005  0.39374105    -0.11700
C245        C  0.09820552  0.80445909  0.39810626     0.03000
C246        C  0.06933755  0.83021079  0.40691087    -0.11100
H247        H  0.17116888  0.95916581  0.40349187     0.08600
H248        H  0.17460259  0.81582835  0.38510219     0.06100
H249        H  0.02683813  0.80705184  0.41039929     0.05900
C250        C  0.20424606  0.09894034  0.08314542     0.03000
C251        C  0.23312832  0.07232603  0.08723737    -0.13200
C252        C  0.28755920  0.10084199  0.09514918     0.00500
C253        C  0.31424008  0.15606829  0.09630677    -0.11700
C254        C  0.28617786  0.18332662  0.09582496     0.03000
C255        C  0.23036077  0.15458563  0.08934042    -0.11100
H256        H  0.21285345  0.02929758  0.08556341     0.08600
H257        H  0.35613790  0.17746482  0.10375856     0.06100
H258        H  0.20785592  0.17498009  0.08914651     0.05900
O259        O  0.06192557  0.13080498  0.06522651    -0.86700
O260        O  0.00811204  0.02150594  0.39201726    -0.86800
O261        O  0.13891971  0.11940002  0.45544830    -0.88500
O262        O  0.98251411  0.11821204  0.45319735    -0.87200
O263        O  0.89884098  0.05749756  0.46995897    -0.86800
O264        O  0.15976212  0.05648048  0.47096486    -0.88200
O265        O  0.05186113  0.10361526  0.41819516    -0.86700
O266        O  0.08005901  0.16271755  0.01228467    -0.86300
Zr267      Zr  0.04510166  0.08831285  0.47423692     2.84300
O268        O  0.96227853  0.01801720  0.45554593    -1.08200
O269        O  0.07360668  0.05958473  0.01854369    -1.09000
C270        C  0.08115336  0.16844244  0.04381875     1.06500
C271        C  0.03569349  0.07428987  0.39244663     1.06400
C272        C  0.17013248  0.09899443  0.45580181     1.09400
C273        C  0.93098540  0.09879501  0.45389358     1.07200
H274        H  0.07690213  0.02559159  0.43639790     0.32700
O275        O  0.05332921  0.01639176  0.45487992    -1.29200
H276        H  0.98020780  0.09069769  0.02318321     0.32400
O277        O  0.98440215  0.06056338  0.01783242    -1.30900
O278        O  0.92417314  0.84921443  0.43612100    -0.86600
O279        O  0.97754535  0.95847005  0.10767314    -0.88100
O280        O  0.09650889  0.93884923  0.45547666    -0.86700
O281        O  0.83960659  0.93983306  0.45616676    -0.86800
O282        O  0.88782248  0.03837554  0.04338161    -0.86500
O283        O  0.14811521  0.04303717  0.04141741    -0.86300
O284        O  0.00920793  0.86144146  0.04488146    -0.86700
O285        O  0.85485532  0.86631121  0.04927130    -0.86100
O286        O  0.09215407  0.92222287  0.02704960    -0.87200
O287        O  0.83015399  0.92433093  0.02966525    -0.86300
O288        O  0.03026908  0.91365125  0.41603009    -0.86700
O289        O  0.10973474  0.06897842  0.08134554    -0.86500
O290        O  0.95454732  0.06586499  0.08276114    -0.86100
O291        O  0.87765534  0.91294990  0.41659123    -0.86500
O292        O  0.90658218  0.81771469  0.48921227    -0.86800
O293        O  0.93876641  0.87649212  0.08141043    -0.88200
Zr294      Zr  0.97114484  0.94683561  0.43585747     2.83100
Zr295      Zr  0.01509205  0.03322328  0.06393310     2.83500
Zr296      Zr  0.08355409  0.98957890  0.99893884     2.84100
Zr297      Zr  0.90304027  0.98982923  0.99953240     2.83400
Zr298      Zr  0.94581099  0.89268766  0.02580187     2.84200
O299        O  0.93417060  0.96266626  0.04409764    -1.08700
O300        O  0.00331525  0.91959770  0.48128351    -1.08200
C301        C  0.90455387  0.81181604  0.45768044     1.06400
C302        C  0.95210610  0.90570398  0.10713917     1.09000
C303        C  0.07232711  0.91456728  0.42843331     1.06600
C304        C  0.83738136  0.91424651  0.42941636     1.07000
C305        C  0.91206976  0.06398988  0.07011384     1.06500
C306        C  0.15013426  0.06847592  0.06805852     1.06100
C307        C  0.06080053  0.88075746  0.04336837     1.06500
C308        C  0.82261612  0.88561624  0.04795006     1.06000
H309        H  0.04287005  0.95504985  0.06280780     0.32700
O310        O  0.02759636  0.96416543  0.04444365    -1.29800
H311        H  0.87951737  0.88895571  0.47692062     0.32700
O312        O  0.91401310  0.91941839  0.48212583    -1.31200
C313        C  0.77419384  0.86654460  0.06928078     0.03000
C314        C  0.74888035  0.81720707  0.08568551    -0.13200
C315        C  0.70092709  0.80195475  0.10279061     0.00500
C316        C  0.67786870  0.83391477  0.10205644    -0.11700
C317        C  0.70623199  0.88557819  0.09135475     0.03000
C318        C  0.75392656  0.90187519  0.07456729    -0.11100
H319        H  0.76630933  0.79190100  0.08556788     0.08600
H320        H  0.64124858  0.82168076  0.11540774     0.06100
H321        H  0.77554370  0.94241898  0.06616997     0.05900
C322        C  0.78324709  0.88383250  0.41392943     0.03000
C323        C  0.75614796  0.82782095  0.40816230    -0.13200
C324        C  0.70011340  0.79977398  0.40178432     0.00500
C325        C  0.67278286  0.82789763  0.40191127    -0.11700
C326        C  0.70069174  0.88309158  0.40096939     0.03000
C327        C  0.75533364  0.91110027  0.40853774    -0.11100
H328        H  0.77793495  0.80657352  0.40882116     0.08600
H329        H  0.63063763  0.80697576  0.39502831     0.06100
H330        H  0.77647033  0.95417584  0.40909709     0.05900
C331        C  0.93367416  0.86946689  0.13589752     0.03000
C332        C  0.96155980  0.84115101  0.14163258    -0.13200
C333        C  0.93335182  0.78626459  0.14895635     0.00500
C334        C  0.87866776  0.76049658  0.15230187    -0.11700
C335        C  0.84998360  0.78634101  0.14853411     0.03000
C336        C  0.87727704  0.84133605  0.14121588    -0.11100
H337        H  0.00380889  0.85990689  0.13659311     0.08600
H338        H  0.85769079  0.71883858  0.15908407     0.06100
H339        H  0.85408171  0.86036519  0.13601455     0.05900
C340        C  0.87612601  0.75732819  0.44535061     0.03000
C341        C  0.82047571  0.73116247  0.44191615    -0.13200
C342        C  0.79323640  0.68081358  0.42690577     0.00500
C343        C  0.82137332  0.65542002  0.41767128    -0.11700
C344        C  0.87706627  0.68310637  0.41864656     0.03000
C345        C  0.90454918  0.73356634  0.43351854    -0.11100
H346        H  0.79918529  0.75191611  0.44782250     0.08600
H347        H  0.80063853  0.61813343  0.40383533     0.06100
H348        H  0.94766686  0.75537719  0.43411014     0.05900
C349        C  0.71128746  0.94112487  0.13820634    -0.26500
C350        C  0.69043800  0.92224884  0.10643951    -0.14600
C351        C  0.64151454  0.91871100  0.09724983     0.36100
C352        C  0.61260854  0.92934952  0.12075814    -0.25900
C353        C  0.63045882  0.94236383  0.15381403    -0.15200
C354        C  0.68145641  0.94955964  0.16223936     0.37200
N355        N  0.70179620  0.96229010  0.19552395    -0.89400
H356        H  0.74817796  0.94268276  0.14554616     0.18300
H357        H  0.57485521  0.92558053  0.11317290     0.18300
N358        N  0.61896687  0.90202843  0.06465755    -0.88400
H359        H  0.74027841  0.96768298  0.19723591     0.35600
H360        H  0.67758074  0.92940022  0.20987641     0.40700
H361        H  0.64497738  0.89710285  0.04933914     0.40400
H362        H  0.58431006  0.86492674  0.06644050     0.35300
C363        C  0.77716869  0.08396039  0.15200268    -0.26500
C364        C  0.76393262  0.08222083  0.11853671    -0.14600
C365        C  0.71796598  0.08474219  0.10951537     0.36100
C366        C  0.68824115  0.09182148  0.13414793    -0.25900
C367        C  0.70363447  0.09709160  0.16766773    -0.15200
C368        C  0.74857042  0.09266790  0.17639600     0.37200
N369        N  0.76686179  0.09923538  0.20995421    -0.89400
H370        H  0.81339083  0.08396505  0.15912962     0.18300
H371        H  0.65261934  0.09282963  0.12694241     0.18300
N372        N  0.70171957  0.08226204  0.07565544    -0.88400
H373        H  0.80611497  0.13096286  0.21127825     0.35600
H374        H  0.76739173  0.06496518  0.21680911     0.40700
H375        H  0.72630858  0.07563683  0.06004465     0.40400
H376        H  0.66355162  0.04897138  0.07280231     0.35300
C377        C  0.71916522  0.04985290  0.34557329    -0.26500
C378        C  0.68553728  0.07054497  0.35278104    -0.14600
C379        C  0.68819700  0.09054594  0.38529083     0.36100
C380        C  0.72704140  0.09414173  0.40778983    -0.25900
C381        C  0.76445223  0.07918998  0.39892369    -0.15200
C382        C  0.75809054  0.05366768  0.36797620     0.37200
N383        N  0.79228796  0.03383174  0.35754816    -0.89400
H384        H  0.71680905  0.03189914  0.32167767     0.18300
H385        H  0.73188572  0.11440055  0.43121906     0.18300
N386        N  0.65407842  0.10986387  0.39607732    -0.88400
H387        H  0.81395670  0.05577240  0.33739872     0.35600
H388        H  0.81972228  0.03816303  0.37584144     0.40700
H389        H  0.61460371  0.07865116  0.39464723     0.40400
H390        H  0.65918505  0.14079712  0.38086747     0.35300
C391        C  0.59557213  0.90647098  0.36358632    -0.26500
C392        C  0.61025493  0.91128771  0.33032600    -0.14600
C393        C  0.65961029  0.91543202  0.32220368     0.36100
C394        C  0.69221021  0.91373920  0.34724049    -0.25900
C395        C  0.67627082  0.90635411  0.38010651    -0.15200
C396        C  0.62794454  0.90388924  0.38855563     0.37200
N397        N  0.60998189  0.89721799  0.42194899    -0.89400
H398        H  0.55893296  0.90532913  0.37038961     0.18300
H399        H  0.72850239  0.91386835  0.34073013     0.18300
N400        N  0.67612445  0.92026545  0.28853091    -0.88400
H401        H  0.60691850  0.93046279  0.42842947     0.35600
H402        H  0.63829073  0.89735701  0.43817725     0.40700
H403        H  0.64923515  0.88500223  0.27609583     0.40400
H404        H  0.71376305  0.92371733  0.28697106     0.35300
C405        C  0.36462500  0.08789130  0.10246126    -0.26500
C406        C  0.31412428  0.07668526  0.11290407    -0.14600
C407        C  0.29975146  0.06277079  0.14575056     0.36100
C408        C  0.33728321  0.06432283  0.16814928    -0.25900
C409        C  0.38993211  0.08072674  0.15871957    -0.15200
C410        C  0.40297524  0.09100079  0.12497464     0.37200
N411        N  0.45516694  0.10743724  0.11288048    -0.89400
H412        H  0.37619736  0.10003550  0.07732488     0.18300
H413        H  0.32525418  0.05464979  0.19346985     0.18300
N414        N  0.24889426  0.05269777  0.15723640    -0.88400
H415        H  0.46421683  0.07740336  0.11706223     0.35600
H416        H  0.48283041  0.14239557  0.12528471     0.40700
H417        H  0.22942231  0.01506111  0.16764904     0.40400
H418        H  0.25551235  0.08058458  0.17581644     0.35300
C419        C  0.31603694  0.92409351  0.11663129    -0.26500
C420        C  0.30932643  0.93251527  0.15004125    -0.14600
C421        C  0.26095170  0.92992205  0.15927723     0.36100
C422        C  0.22151184  0.91947140  0.13517598    -0.25900
C423        C  0.22682652  0.90742373  0.10241385    -0.15200
C424        C  0.27523909  0.91074230  0.09292778     0.37200
N425        N  0.28327099  0.89826076  0.05992028    -0.89400
H426        H  0.35279425  0.92637546  0.10886578     0.18300
H427        H  0.18359468  0.91478443  0.14273759     0.18300
N428        N  0.25046891  0.93499576  0.19326738    -0.88400
H429        H  0.31590187  0.93232703  0.05060721     0.35600
H430        H  0.25070108  0.89005149  0.04461959     0.40700
H431        H  0.24774088  0.90233691  0.20559486     0.40400
H432        H  0.21338112  0.93252842  0.19570897     0.35300
C433        C  0.26184127  0.92666150  0.31948459    -0.26500
C434        C  0.30581139  0.92286910  0.33104169    -0.14600
C435        C  0.31183570  0.91854082  0.36538358     0.36100
C436        C  0.27259158  0.91551455  0.38676221    -0.25900
C437        C  0.22768369  0.91657629  0.37464247    -0.15200
C438        C  0.22325894  0.92393282  0.34091339     0.37200
N439        N  0.17733526  0.92462970  0.32802324    -0.89400
H440        H  0.25636427  0.93054590  0.29344073     0.18300
H441        H  0.27483768  0.90814016  0.41267000     0.18300
N442        N  0.35683713  0.91612948  0.37854335    -0.88400
H443        H  0.19055195  0.96049290  0.31583166     0.35600
H444        H  0.15834590  0.89365639  0.31066539     0.40700
H445        H  0.35195328  0.87922980  0.37155548     0.40400
H446        H  0.35683130  0.91677561  0.40428326     0.35300
C447        C  0.29298828  0.07189600  0.35951915    -0.26500
C448        C  0.30796687  0.07769263  0.39295634    -0.14600
C449        C  0.35163341  0.07190998  0.40244794     0.36100
C450        C  0.38142337  0.06381651  0.37815990    -0.25900
C451        C  0.36963774  0.06298884  0.34427373    -0.15200
C452        C  0.32352222  0.06560667  0.33502816     0.37200
N453        N  0.30968464  0.06582147  0.30092098    -0.89400
H454        H  0.26012446  0.07764920  0.35221898     0.18300
H455        H  0.41534424  0.06011988  0.38581912     0.18300
N456        N  0.36669326  0.07619236  0.43665956    -0.88400
H457        H  0.27818750  0.07350759  0.29857319     0.35600
H458        H  0.29521175  0.02750414  0.29128942     0.40700
H459        H  0.37968598  0.11513584  0.44467264     0.40400
H460        H  0.39917078  0.07016800  0.43968571     0.35300
C461        C  0.07936405  0.76118178  0.14949438    -0.26500
C462        C  0.07692604  0.74550320  0.11637948    -0.14600
C463        C  0.08138583  0.70051220  0.10903564     0.36100
C464        C  0.08870251  0.67255723  0.13471543    -0.25900
C465        C  0.09280356  0.68909372  0.16789167    -0.15200
C466        C  0.08849525  0.73442192  0.17519066     0.37200
N467        N  0.09487350  0.75407828  0.20852088    -0.89400
H468        H  0.07929890  0.79770687  0.15501843     0.18300
H469        H  0.09075392  0.63729565  0.12862740     0.18300
N470        N  0.08200749  0.68565109  0.07527295    -0.88400
H471        H  0.13383510  0.76578776  0.21630621     0.35600
H472        H  0.09145955  0.78816954  0.20955800     0.40700
H473        H  0.04450042  0.67414168  0.06485699     0.40400
H474        H  0.08704383  0.65250976  0.07382781     0.35300
C475        C  0.96427709  0.70237897  0.20149801    -0.26500
C476        C  0.94798704  0.65649231  0.18135047    -0.14600
C477        C  0.93882184  0.66019800  0.14743820     0.36100
C478        C  0.94273306  0.70769780  0.13540533    -0.25900
C479        C  0.95665018  0.75213109  0.15629120    -0.15200
C480        C  0.96922447  0.74946931  0.18930107     0.37200
N481        N  0.98237885  0.79328524  0.21135011    -0.89400
H482        H  0.97260627  0.70203648  0.22752483     0.18300
H483        H  0.93096326  0.70877896  0.11013849     0.18300
N484        N  0.92437609  0.61582447  0.12549673    -0.88400
H485        H  0.01953440  0.80496832  0.22234204     0.35600
H486        H  0.95398089  0.78003447  0.22988982     0.40700
H487        H  0.95733187  0.61033602  0.12410446     0.40400
H488        H  0.91746749  0.62461561  0.10167516     0.35300
C489        C  0.90433186  0.61800368  0.40338132    -0.26500
C490        C  0.90375549  0.66455400  0.39602193    -0.14600
C491        C  0.91654065  0.68542375  0.36399128     0.36100
C492        C  0.92714700  0.65798441  0.33961034    -0.25900
C493        C  0.92486472  0.60973529  0.34640538    -0.15200
C494        C  0.91560596  0.59069997  0.37901299     0.37200
N495        N  0.91721833  0.54354153  0.38721358    -0.89400
H496        H  0.89383463  0.60186144  0.42786883     0.18300
H497        H  0.93503512  0.67332275  0.31484907     0.18300
N498        N  0.91581589  0.73264489  0.35508294    -0.88400
H499        H  0.90878394  0.53464269  0.41207151     0.35600
H500        H  0.95637235  0.55169027  0.38395871     0.40700
H501        H  0.94356545  0.76412249  0.37001509     0.40400
H502        H  0.87781370  0.72702021  0.35941683     0.35300
C503        C  0.06547291  0.70422489  0.33180102    -0.26500
C504        C  0.07881856  0.66835747  0.34640148    -0.14600
C505        C  0.08547941  0.67079656  0.38109963     0.36100
C506        C  0.08437210  0.71218593  0.39936465    -0.25900
C507        C  0.07418545  0.74963095  0.38398057    -0.15200
C508        C  0.06250788  0.74369954  0.35008286     0.37200
N509        N  0.05308123  0.78156746  0.33344106    -0.89400
H510        H  0.05837985  0.70289428  0.30548251     0.18300
H511        H  0.09510423  0.71752589  0.42532181     0.18300
N512        N  0.09592905  0.63335377  0.39752854    -0.88400
H513        H  0.01627419  0.76098490  0.32102233     0.35600
H514        H  0.08256172  0.80023070  0.31581060     0.35900
H515        H  0.06129602  0.59611003  0.39535156     0.40400
H516        H  0.10228543  0.64225709  0.42274662     0.35300
C517        C  0.91484666  0.31707823  0.11591569    -0.26500
C518        C  0.91101978  0.31184020  0.15033319    -0.14600
C519        C  0.91300426  0.26800679  0.16423436     0.36100
C520        C  0.91875347  0.23186582  0.14417862    -0.25900
C521        C  0.91781354  0.23431330  0.10988707    -0.15200
C522        C  0.91677591  0.27823447  0.09557703     0.37200
N523        N  0.91607404  0.28365633  0.06051088    -0.89400
H524        H  0.91447597  0.35046141  0.10459082     0.18300
H525        H  0.91731759  0.19757049  0.15556398     0.18300
N526        N  0.90706968  0.25820378  0.19886254    -0.88400
H527        H  0.87902373  0.27910476  0.05379327     0.35600
H528        H  0.91932402  0.25358905  0.04837667     0.40700
H529        H  0.94070932  0.25781003  0.20779804     0.40400
H530        H  0.87385305  0.22061124  0.20233176     0.35300
C531        C  0.05920458  0.29493018  0.12859261    -0.26500
C532        C  0.07184294  0.31634834  0.09710812    -0.14600
C533        C  0.07112460  0.36331995  0.09023427     0.36100
C534        C  0.05968461  0.38909610  0.11567470    -0.25900
C535        C  0.05159154  0.36997857  0.14804240    -0.15200
C536        C  0.05128871  0.32221587  0.15429529     0.37200
N537        N  0.04749298  0.30335397  0.18708790    -0.89400
H538        H  0.06116185  0.25953861  0.13413880     0.18300
H539        H  0.05902290  0.42523542  0.11047590     0.18300
N540        N  0.08334650  0.38523000  0.05782088    -0.88400
H541        H  0.08309885  0.30393961  0.19280006     0.35600
H542        H  0.01688077  0.26365991  0.18721383     0.40700
H543        H  0.12325964  0.39715233  0.05335367     0.40400
H544        H  0.08026160  0.41950722  0.05675839     0.35300
C545        C  0.04878692  0.31987618  0.34765627    -0.26500
C546        C  0.03713726  0.32151614  0.31410926    -0.14600
C547        C  0.02271483  0.27509232  0.29444571     0.36100
C548        C  0.01960278  0.22973288  0.30820724    -0.25900
C549        C  0.03311648  0.22868803  0.34101865    -0.15200
C550        C  0.04811226  0.27454836  0.36107769     0.37200
N551        N  0.06392717  0.27535895  0.39483911    -0.89400
H552        H  0.05918838  0.35414998  0.36334533     0.18300
H553        H  0.01129564  0.19640561  0.29206069     0.18300
N554        N  0.01296955  0.27362875  0.25976820    -0.88400
H555        H  0.07255242  0.31108932  0.40646902     0.35600
H556        H  0.09940238  0.27417628  0.39515600     0.40700
H557        H  0.97462990  0.24170446  0.25480222     0.40400
H558        H  0.04022413  0.26573383  0.24798378     0.35300
C559        C  0.90274939  0.25204258  0.32198872    -0.26500
C560        C  0.91166308  0.30183242  0.33284375    -0.14600
C561        C  0.92937100  0.31851490  0.36581550     0.36100
C562        C  0.93462636  0.28380776  0.38743083    -0.25900
C563        C  0.92288456  0.23311651  0.37685745    -0.15200
C564        C  0.90788126  0.21771610  0.34358579     0.37200
N565        N  0.89141392  0.16450670  0.33278460    -0.89400
H566        H  0.89006581  0.23877910  0.29677047     0.18300
H567        H  0.94404689  0.29474907  0.41323242     0.18300
N568        N  0.94148810  0.37027623  0.37745430    -0.88400
H569        H  0.91354941  0.16625334  0.31224955     0.35600
H570        H  0.85146503  0.14675627  0.32503970     0.40700
H571        H  0.97513767  0.39820273  0.36496328     0.40400
H572        H  0.95227272  0.37545480  0.40243886     0.35300
C573        C  0.66896348  0.75169189  0.34979246    -0.26500
C574        C  0.67034627  0.74756213  0.38401656    -0.14600
C575        C  0.62802526  0.70207271  0.39879191     0.36100
C576        C  0.58514385  0.66324097  0.37906964    -0.25900
C577        C  0.58162964  0.67004415  0.34497184    -0.15200
C578        C  0.62472298  0.71560416  0.33060673     0.37200
N579        N  0.62311749  0.72747943  0.29660333    -0.89400
H580        H  0.69969217  0.78724487  0.33820257     0.18300
H581        H  0.55372740  0.62835868  0.39071163     0.18300
N582        N  0.62674963  0.69485200  0.43375809    -0.88400
H583        H  0.65712752  0.73129695  0.28548908     0.35600
H584        H  0.62496220  0.76426522  0.29532357     0.40700
H585        H  0.66126150  0.72516002  0.44526601     0.40400
H586        H  0.59446834  0.69752749  0.44274289     0.35300
C587        C  0.75283071  0.69076652  0.37749006    -0.26500
C588        C  0.74442049  0.66505584  0.40764277    -0.14600
C589        C  0.69829856  0.61516586  0.41185389     0.36100
C590        C  0.66415866  0.59005121  0.38476823    -0.25900
C591        C  0.67619685  0.61307648  0.35342034    -0.15200
C592        C  0.72069658  0.66469529  0.35014413     0.37200
N593        N  0.73790939  0.68945730  0.31895935    -0.89400
H594        H  0.78901324  0.72857401  0.37395557     0.18300
H595        H  0.62895549  0.55145096  0.38806081     0.18300
N596        N  0.68632136  0.58836987  0.44279177    -0.88400
H597        H  0.70901067  0.69691232  0.30906022     0.35600
H598        H  0.74279879  0.66339941  0.30344694     0.40700
H599        H  0.71396547  0.61216533  0.46106815     0.40400
H600        H  0.68972191  0.55444829  0.43978477     0.35300
C601        C  0.78025390  0.75462477  0.18921709    -0.26500
C602        C  0.79258422  0.75273411  0.15643931    -0.14600
C603        C  0.75891596  0.70607404  0.13750539     0.36100
C604        C  0.71567638  0.66165561  0.15248260    -0.25900
C605        C  0.70564440  0.66217497  0.18625200    -0.15200
C606        C  0.73824542  0.71100643  0.20424028     0.37200
N607        N  0.73195646  0.71789451  0.23844052    -0.89400
H608        H  0.80663392  0.78920149  0.20431173     0.18300
H609        H  0.69045742  0.62622628  0.13782237     0.18300
N610        N  0.76993096  0.70337930  0.10334104    -0.88400
H611        H  0.73396623  0.68815330  0.25139758     0.35600
H612        H  0.69543090  0.71612150  0.24167648     0.40700
H613        H  0.80606039  0.70363837  0.10189124     0.40400
H614        H  0.74079521  0.66740639  0.09262839     0.35300
C615        C  0.63965945  0.73982646  0.18233736    -0.26500
C616        C  0.59682052  0.69082771  0.17136912    -0.14600
C617        C  0.59587757  0.67487283  0.13814975     0.36100
C618        C  0.63522254  0.70923770  0.11634857    -0.25900
C619        C  0.67638955  0.75910035  0.12705081    -0.15200
C620        C  0.67913331  0.77410262  0.16061731     0.37200
N621        N  0.71931945  0.82648952  0.17165336    -0.89400
H622        H  0.64190236  0.75185092  0.20790793     0.18300
H623        H  0.63181864  0.69814080  0.09051257     0.18300
N624        N  0.55565314  0.62335545  0.12644627    -0.88400
H625        H  0.71626553  0.83150753  0.19690370     0.35600
H626        H  0.75671826  0.83028709  0.16804431     0.40700
H627        H  0.57467648  0.60324260  0.11775457     0.40400
H628        H  0.53532108  0.62836540  0.10663553     0.35300
C629        C  0.26573849  0.32371455  0.15785578    -0.26500
C630        C  0.31342292  0.36950064  0.14963517    -0.14600
C631        C  0.32209250  0.38601095  0.11658696     0.36100
C632        C  0.28123724  0.35937403  0.09298091    -0.25900
C633        C  0.23251921  0.31583066  0.10181964    -0.15200
C634        C  0.22534880  0.29674234  0.13430900     0.37200
N635        N  0.17628476  0.25180845  0.14442904    -0.89400
H636        H  0.25892998  0.30991574  0.18298877     0.18300
H637        H  0.28667543  0.37414816  0.06810333     0.18300
N638        N  0.37211086  0.43001109  0.10696039    -0.88400
H639        H  0.14524490  0.25970758  0.14048297     0.35600
H640        H  0.16901112  0.21890931  0.12990158     0.40700
H641        H  0.38783403  0.41661166  0.08864025     0.40400
H642        H  0.36481045  0.45866335  0.09672695     0.35300
C643        C  0.35223132  0.27940115  0.16473825    -0.26500
C644        C  0.40106424  0.31723296  0.15074180    -0.14600
C645        C  0.40529534  0.31638445  0.11610683     0.36100
C646        C  0.36286352  0.27630604  0.09706426    -0.25900
C647        C  0.31560464  0.23691110  0.11165610    -0.15200
C648        C  0.30969042  0.24019650  0.14575341     0.37200
N649        N  0.26163680  0.20138189  0.16142616    -0.89400
H650        H  0.34699958  0.27949223  0.19108400     0.18300
H651        H  0.36863229  0.27308261  0.07101449     0.18300
N652        N  0.45301788  0.35327984  0.09976507    -0.88400
H653        H  0.26274355  0.21038846  0.18650403     0.35600
H654        H  0.26002192  0.16471159  0.15996409     0.40700
H655        H  0.45978179  0.39166158  0.10411522     0.40400
H656        H  0.48494095  0.35049715  0.10976899     0.35300
C657        C  0.39266746  0.31993569  0.36833608    -0.26500
C658        C  0.39000068  0.30034666  0.33604526    -0.14600
C659        C  0.34919215  0.24836950  0.32774454     0.36100
C660        C  0.31191840  0.21773290  0.35138898    -0.25900
C661        C  0.31708858  0.23586720  0.38422192    -0.15200
C662        C  0.35736565  0.28776602  0.39267506     0.37200
N663        N  0.36316625  0.30697942  0.42605357    -0.89400
H664        H  0.42294275  0.36032240  0.37483115     0.18300
H665        H  0.28230118  0.17694874  0.34506052     0.18300
N666        N  0.34739149  0.22513831  0.29615154    -0.88400
H667        H  0.39442251  0.34634526  0.42809215     0.35600
H668        H  0.37409308  0.28449928  0.44071435     0.40700
H669        H  0.30953679  0.21146456  0.28568841     0.40400
H670        H  0.35173713  0.19194404  0.29984618     0.35300
C671        C  0.20930545  0.22411089  0.30728686    -0.26500
C672        C  0.19489411  0.22393279  0.33997607    -0.14600
C673        C  0.22606227  0.27036198  0.35960303     0.36100
C674        C  0.26989498  0.31572975  0.34617001    -0.25900
C675        C  0.28203562  0.31717699  0.31269989    -0.15200
C676        C  0.25024086  0.27026743  0.29311506     0.37200
N677        N  0.25652817  0.26992083  0.25813540    -0.89400
H678        H  0.18401585  0.19030734  0.29135602     0.18300
H679        H  0.29325420  0.35046938  0.36179274     0.18300
N680        N  0.21022385  0.27307678  0.39249760    -0.88400
H681        H  0.22060903  0.26173900  0.24667946     0.35600
H682        H  0.26374057  0.23919407  0.25185502     0.40700
H683        H  0.20162681  0.30394071  0.39374812     0.40400
H684        H  0.24282412  0.28322347  0.40827506     0.35300
O685        O  0.46813775  0.37888443  0.82083306    -0.75500
O686        O  0.40931069  0.33225766  0.77969519    -0.54400
C687        C  0.42442612  0.33874800  0.81001072     0.78300
O688        O  0.49685192  0.58632841  0.83545190    -0.60100
O689        O  0.54035417  0.63601675  0.79304398    -0.53100
C690        C  0.53533821  0.62985823  0.82390643     0.70300
O691        O  0.35541612  0.41217572  0.81374432    -0.74600
O692        O  0.34234834  0.35843178  0.76952351    -0.55200
C693        C  0.32857354  0.36721870  0.79749402     0.76300
O694        O  0.61547431  0.53102546  0.82760975    -0.59800
O695        O  0.63088931  0.60941663  0.80628521    -0.52900
C696        C  0.63913808  0.58222382  0.82781922     0.72900
Zr697      Zr  0.54351019  0.45600457  0.79650801     2.54700
O698        O  0.56804031  0.43354629  0.84903599    -0.80300
O699        O  0.59422257  0.41345479  0.78062765    -0.93700
Zr700      Zr  0.43444544  0.50324756  0.80326445     2.64700
O701        O  0.41001672  0.48804907  0.86097842    -0.98700
O702        O  0.37377680  0.53812436  0.79906141    -0.80800
O703        O  0.45957390  0.44277807  0.79007349    -0.84100
O704        O  0.52593481  0.52580018  0.80594530    -2.18800
O705        O  0.63582371  0.57206843  0.68920224    -0.67500
O706        O  0.64915091  0.62707331  0.73279043    -0.52100
C707        C  0.66212066  0.61817039  0.70457095     0.71300
O708        O  0.38339732  0.45587656  0.67262570    -0.60400
O709        O  0.35628807  0.37917938  0.70016149    -0.52400
C710        C  0.35367320  0.40540502  0.67579242     0.73100
O711        O  0.51590675  0.62081223  0.68879551    -0.71800
O712        O  0.58455486  0.65794175  0.72630822    -0.50500
C713        C  0.56304915  0.65760414  0.69842755     0.74500
O714        O  0.48263195  0.40691555  0.66432938    -0.67100
O715        O  0.43579681  0.34718767  0.70247596    -0.54300
C716        C  0.44357944  0.36075417  0.67249925     0.72800
Zr717      Zr  0.55484234  0.48013705  0.69950629     2.77500
O718        O  0.58412935  0.48528634  0.64293258    -0.97900
O719        O  0.60827337  0.43729787  0.70493487    -0.78700
Zr720      Zr  0.44829762  0.53052971  0.70642445     2.70100
O721        O  0.42707344  0.55590947  0.65383867    -0.80000
O722        O  0.38527014  0.55817301  0.72302604    -0.99000
Zr723      Zr  0.42417623  0.40166789  0.74165936     2.21500
Zr724      Zr  0.56758503  0.58469087  0.76122174     2.11100
O725        O  0.53792579  0.55018143  0.70683224    -2.47700
O726        O  0.46922638  0.46452539  0.70369032    -0.79700
O727        O  0.58936651  0.51627068  0.75341163    -0.71900
O728        O  0.40107820  0.46925854  0.74900333    -2.32900
O729        O  0.51355584  0.41750308  0.74289498    -2.29100
O730        O  0.47738839  0.56649227  0.76026202    -0.73700
H731        H  0.53935269  0.53977198  0.82786420     0.78300
H732        H  0.36312883  0.45538013  0.74701903     0.79400
H733        H  0.55663568  0.57221416  0.68858157     0.81600
H734        H  0.51526805  0.38534706  0.73982471     0.79200
H735        H  0.33870802  0.50807787  0.80540719     0.42300
H736        H  0.40472239  0.59714857  0.72000882     0.41200
H737        H  0.44427769  0.54474244  0.63712939     0.40900
H738        H  0.58118328  0.51487194  0.63327906     0.38800
H739        H  0.64366500  0.46607071  0.71283933     0.42000
H740        H  0.57186453  0.37603575  0.78735407     0.36700
H741        H  0.54931705  0.44286471  0.86576619     0.42900
H742        H  0.44283586  0.49409285  0.87267743     0.39300
H743        H  0.62303174  0.49884767  0.64472673     0.44200
H744        H  0.62524519  0.42852161  0.79608979     0.42900
H745        H  0.40573777  0.51848372  0.86778436     0.43100
H746        H  0.35748944  0.54408487  0.70535105     0.43400
O747        O  0.05250938  0.41485615  0.81704694    -0.75500
O748        O  0.01733244  0.36225806  0.77155081    -0.54400
C749        C  0.03689533  0.37051652  0.80066656     0.78300
O750        O  0.90780160  0.52796593  0.82100960    -0.60100
O751        O  0.96826103  0.60677017  0.79871881    -0.53100
C752        C  0.93321155  0.57914282  0.82013046     0.70300
O753        O  0.90533019  0.37696185  0.81739462    -0.74600
O754        O  0.91939532  0.33109932  0.77741645    -0.55200
C755        C  0.91016323  0.33750711  0.80737292     0.76300
O756        O  0.08035605  0.58690757  0.83536177    -0.59800
O757        O  0.08523087  0.63846845  0.79367699    -0.52900
C758        C  0.08300353  0.62986511  0.82443330     0.72900
Zr759      Zr  0.06405184  0.50490325  0.80379160     2.54700
O760        O  0.07674680  0.49617976  0.86229671    -0.80300
O761        O  0.16026366  0.54239140  0.80065135    -0.93700
Zr762      Zr  0.90641040  0.45302720  0.79157065     2.64700
O763        O  0.84777217  0.42190097  0.83888912    -0.98700
O764        O  0.81480154  0.41052002  0.77053866    -0.80800
O765        O  0.97891752  0.44217115  0.78879836    -0.84100
O766        O  0.99319247  0.52456545  0.80319654    -2.18800
O767        O  0.10336535  0.61874316  0.68744430    -0.67500
O768        O  0.06899990  0.65522943  0.72228745    -0.52100
C769        C  0.09181052  0.65492001  0.69540941     0.71300
O770        O  0.92287514  0.40157824  0.66163532    -0.60400
O771        O  0.90870546  0.34545485  0.70219600    -0.52400
C772        C  0.91494910  0.35610642  0.67185451     0.73100
O773        O  0.93191251  0.56549040  0.68278324    -0.71800
O774        O  0.96979832  0.62035832  0.72740759    -0.50500
C775        C  0.94959340  0.61098959  0.69834353     0.74500
O776        O  0.07069820  0.45464733  0.67288220    -0.67100
O777        O  0.02069346  0.37783085  0.70021731    -0.54300
C778        C  0.04966862  0.40406092  0.67605380     0.72800
Zr779      Zr  0.08130305  0.52964351  0.70660100     2.77500
O780        O  0.13133803  0.55056762  0.65567213    -0.97900
O781        O  0.17159381  0.55896467  0.72657070    -0.78700
Zr782      Zr  0.92360102  0.47573905  0.69467577     2.70100
O783        O  0.90375831  0.48195196  0.63702215    -0.80000
O784        O  0.82663205  0.43003456  0.69701869    -0.99000
Zr785      Zr  0.97631419  0.40118535  0.74107647     2.21500
Zr786      Zr  0.01207598  0.58253872  0.75755454     2.11100
O787        O  0.01018549  0.54756057  0.70380576    -2.47700
O788        O  0.99466997  0.46254473  0.70208439    -0.79700
O789        O  0.08547991  0.56678910  0.75977356    -0.71900
O790        O  0.90144581  0.41455205  0.73889906    -2.32900
O791        O  0.06651586  0.47017893  0.75052328    -2.29100
O792        O  0.92237530  0.51235249  0.74757385    -0.73700
H793        H  0.99220464  0.53797026  0.82401425     0.78300
H794        H  0.86768553  0.38209530  0.73552751     0.79400
H795        H  0.01348328  0.56905634  0.68517699     0.81600
H796        H  0.09120933  0.45708759  0.74996488     0.79200
H797        H  0.79846517  0.37317475  0.77769136     0.42300
H798        H  0.81636464  0.45093164  0.68269436     0.41200
H799        H  0.93900603  0.49943187  0.62638717     0.40900
H800        H  0.10916494  0.55610498  0.63922974     0.38800
H801        H  0.18869361  0.59815599  0.72834103     0.42000
H802        H  0.16725814  0.51674988  0.81239760     0.36700
H803        H  0.04609542  0.49608683  0.87293190     0.42900
H804        H  0.87160482  0.43831246  0.85835306     0.39300
H805        H  0.16304680  0.58625931  0.65945513     0.44200
H806        H  0.17548396  0.57413894  0.81539902     0.42900
H807        H  0.82617408  0.43962685  0.83767291     0.43100
H808        H  0.81460176  0.39630624  0.68461621     0.43400
O809        O  0.38098522  0.91959891  0.81349215    -0.75500
O810        O  0.34292534  0.94915544  0.77684298    -0.54400
C811        C  0.34422321  0.92988801  0.80479711     0.78300
O812        O  0.60893957  0.07760716  0.83564909    -0.60100
O813        O  0.64954940  0.04795695  0.80072159    -0.53100
C814        C  0.64510449  0.06554132  0.82912360     0.70300
O815        O  0.45181621  0.06754030  0.83055225    -0.74600
O816        O  0.38895002  0.04686420  0.79055715    -0.55200
C817        C  0.40584177  0.05935387  0.82049391     0.76300
O818        O  0.52530158  0.90328067  0.81119285    -0.59800
O819        O  0.60195270  0.94738061  0.78229188    -0.52900
C820        C  0.57474655  0.91778569  0.80597288     0.72900
Zr821      Zr  0.45557456  0.91840398  0.78621252     2.54700
O822        O  0.42360953  0.85944134  0.83315678    -0.80300
O823        O  0.40439612  0.83172345  0.75895767    -0.93700
Zr824      Zr  0.53297401  0.07565401  0.80635405     2.64700
O825        O  0.53076561  0.09616992  0.86443267    -0.98700
O826        O  0.58121453  0.17233996  0.80521497    -0.80800
O827        O  0.45906575  0.99846437  0.79005830    -0.84100
O828        O  0.53690564  0.99672296  0.79925168    -2.18800
O829        O  0.55036261  0.93946996  0.67030575    -0.67500
O830        O  0.61895263  0.97445061  0.70787357    -0.52100
C831        C  0.59855126  0.95304227  0.67958234     0.71300
O832        O  0.47934893  0.09921612  0.67885108    -0.60400
O833        O  0.41429374  0.07842740  0.71527225    -0.52400
C834        C  0.43245060  0.09020620  0.68620701     0.73100
O835        O  0.63725560  0.11382542  0.68889844    -0.71800
O836        O  0.66959250  0.07634080  0.72439605    -0.50500
C837        C  0.67123532  0.09924928  0.69727337     0.74500
O838        O  0.39301928  0.93939127  0.66602272    -0.67100
O839        O  0.35494110  0.97084129  0.70155093    -0.54300
C840        C  0.35565606  0.94912138  0.67406184     0.72800
Zr841      Zr  0.47428859  0.94698320  0.69145846     2.77500
O842        O  0.47675689  0.95185405  0.63150879    -0.97900
O843        O  0.42741988  0.85044064  0.68663856    -0.78700
Zr844      Zr  0.55356064  0.10411812  0.71152154     2.70100
O845        O  0.58392245  0.16669495  0.66637402    -0.80000
O846        O  0.59410025  0.19195798  0.73744446    -0.99000
Zr847      Zr  0.41848719  0.01151039  0.74650951     2.21500
Zr848      Zr  0.59124830  0.01164152  0.75217961     2.11100
O849        O  0.55640555  0.02519197  0.70196660    -2.47700
O850        O  0.47629974  0.02398456  0.70594152    -0.79700
O851        O  0.51014615  0.93011281  0.74008662    -0.71900
O852        O  0.49879302  0.09397363  0.75774449    -2.32900
O853        O  0.41689191  0.92942744  0.73700639    -2.29100
O854        O  0.59134287  0.09314521  0.76116499    -0.73700
H855        H  0.55002998  0.99054015  0.81966747     0.78300
H856        H  0.49242153  0.12327108  0.76069822     0.79400
H857        H  0.57614585  0.02825572  0.68239990     0.81600
H858        H  0.38119563  0.90032953  0.73266156     0.79200
H859        H  0.55436866  0.18236196  0.81131132     0.42300
H860        H  0.63220290  0.20926866  0.73141691     0.41200
H861        H  0.57802172  0.14465283  0.64633274     0.40900
H862        H  0.51303026  0.98117056  0.62652160     0.38800
H863        H  0.41856305  0.84280783  0.66286666     0.42000
H864        H  0.38382850  0.80685933  0.77662632     0.36700
H865        H  0.44315503  0.88231195  0.85246511     0.42900
H866        H  0.53025898  0.06651775  0.87649446     0.39300
H867        H  0.47638620  0.91921117  0.62386125     0.44200
H868        H  0.43141293  0.82192427  0.75291130     0.42900
H869        H  0.56620947  0.12756029  0.86950755     0.43100
H870        H  0.57970355  0.21117566  0.72491599     0.43400
C871        C  0.05321860  0.11176244  0.86339152     0.03000
C872        C  0.10917440  0.13848112  0.85636763    -0.13200
C873        C  0.13657546  0.19268571  0.84702454     0.00500
C874        C  0.10861874  0.21931981  0.84377545    -0.11700
C875        C  0.05479152  0.19547125  0.84981036     0.03000
C876        C  0.02616674  0.14112241  0.85847464    -0.11100
H877        H  0.13213993  0.11922606  0.86160360     0.08600
H878        H  0.12965824  0.26048912  0.83595224     0.06100
H879        H  0.98457176  0.12371103  0.86496158     0.05900
C880        C  0.10916152  0.22469553  0.55614457     0.03000
C881        C  0.16356472  0.25023899  0.56447878    -0.13200
C882        C  0.18821342  0.30058898  0.57945155     0.00500
C883        C  0.15977585  0.32717892  0.58346424    -0.11700
C884        C  0.10474952  0.30073353  0.57751999     0.03000
C885        C  0.07950488  0.24980815  0.56288623    -0.11100
H886        H  0.18559252  0.22959699  0.56151740     0.08600
H887        H  0.17837022  0.36462191  0.59720489     0.06100
H888        H  0.03686515  0.22888407  0.55851481     0.05900
C889        C  0.08980501  0.85781799  0.56291979     0.03000
C890        C  0.14567426  0.89162487  0.56930481    -0.13200
C891        C  0.17601303  0.87252715  0.58488928     0.00500
C892        C  0.15152708  0.81945971  0.59285318    -0.11700
C893        C  0.09606822  0.78851084  0.59280852     0.03000
C894        C  0.06439514  0.80682175  0.57720096    -0.11100
H895        H  0.16548369  0.93340038  0.56333113     0.08600
H896        H  0.17508420  0.80537874  0.60573759     0.06100
H897        H  0.02128082  0.78263673  0.57696745     0.05900
C898        C  0.89338385  0.09776631  0.58599234     0.03000
C899        C  0.92440084  0.15406886  0.58886352    -0.13200
C900        C  0.89896078  0.18457617  0.59329701     0.00500
C901        C  0.84346474  0.15818669  0.59453233    -0.11700
C902        C  0.81503614  0.10387006  0.60025785     0.03000
C903        C  0.83898519  0.07297170  0.59414874    -0.11100
H904        H  0.96731992  0.17353178  0.58793622     0.08600
H905        H  0.82428660  0.18133700  0.59978193     0.06100
H906        H  0.81603471  0.03029639  0.59687440     0.05900
C907        C  0.90154736  0.12304639  0.93643191     0.03000
C908        C  0.92883766  0.17073666  0.91860398    -0.13200
C909        C  0.89899296  0.18927468  0.90123614     0.00500
C910        C  0.84371514  0.16180443  0.90230344    -0.11700
C911        C  0.81629110  0.11187877  0.91561568     0.03000
C912        C  0.84459476  0.09309748  0.93377400    -0.11100
H913        H  0.97192574  0.19193569  0.91749138     0.08600
H914        H  0.82157040  0.17617567  0.88810177     0.06100
H915        H  0.82208449  0.05375572  0.94399586     0.05900
C916        C  0.21935147  0.12270313  0.93608191     0.03000
C917        C  0.24333080  0.17398954  0.92247247    -0.13200
C918        C  0.29309481  0.19437656  0.90693208     0.00500
C919        C  0.31947660  0.16540951  0.90685272    -0.11700
C920        C  0.29173009  0.11161744  0.91323267     0.03000
C921        C  0.24223809  0.09029091  0.92873128    -0.11100
H922        H  0.22303623  0.19662194  0.92310610     0.08600
H923        H  0.35741488  0.18153226  0.89438660     0.06100
H924        H  0.22092750  0.04820935  0.93389191     0.05900
C925        C  0.09474361  0.88744908  0.91006715     0.03000
C926        C  0.14906724  0.91688525  0.90197717    -0.13200
C927        C  0.17599323  0.89068237  0.89177065     0.00500
C928        C  0.15009824  0.83548966  0.89166388    -0.11700
C929        C  0.09527958  0.80527938  0.89608179     0.03000
C930        C  0.06693372  0.83138766  0.90508362    -0.11100
H931        H  0.16992197  0.95995352  0.90283592     0.08600
H932        H  0.17127865  0.81591283  0.88278555     0.06100
H933        H  0.02438394  0.80864875  0.90834689     0.05900
C934        C  0.20793197  0.10142295  0.58190323     0.03000
C935        C  0.23769775  0.07582542  0.58669344    -0.13200
C936        C  0.29232093  0.10547757  0.59424657     0.00500
C937        C  0.31833246  0.16071533  0.59397606    -0.11700
C938        C  0.28951676  0.18724275  0.59288389     0.03000
C939        C  0.23354976  0.15733304  0.58684709    -0.11100
H940        H  0.21792342  0.03277294  0.58607912     0.08600
H941        H  0.36032438  0.18296662  0.60114282     0.06100
H942        H  0.21040030  0.17701281  0.58631199     0.05900
O943        O  0.06408485  0.13229468  0.56525267    -0.86700
O944        O  0.00711009  0.02254373  0.89163634    -0.86800
O945        O  0.13727677  0.11926208  0.95502856    -0.88500
O946        O  0.98082151  0.11869387  0.95392849    -0.87200
O947        O  0.89746077  0.05785078  0.97101541    -0.86800
O948        O  0.15855867  0.05661857  0.97040484    -0.88200
O949        O  0.05168337  0.10437365  0.91812102    -0.86700
O950        O  0.08133390  0.16374260  0.51219924    -0.86300
Zr951      Zr  0.04336655  0.08803111  0.97400590     2.84300
O952        O  0.96048741  0.01803858  0.95499968    -1.08200
O953        O  0.07574700  0.06016803  0.51873670    -1.09000
C954        C  0.08282795  0.16984474  0.54374989     1.06500
C955        C  0.03535665  0.07536015  0.89225145     1.06400
C956        C  0.16874620  0.09911739  0.95527160     1.09400
C957        C  0.92934549  0.09945902  0.95515740     1.07200
H958        H  0.07523132  0.02571384  0.93603944     0.32700
O959        O  0.05161882  0.01634414  0.95446402    -1.29200
H960        H  0.98222372  0.09153174  0.52333486     0.32400
O961        O  0.98628719  0.06131580  0.51809185    -1.30900
O962        O  0.92331820  0.84906622  0.93549058    -0.86600
O963        O  0.98138635  0.96076477  0.60848879    -0.88100
O964        O  0.09486925  0.93935208  0.95451057    -0.86700
O965        O  0.83785987  0.94035334  0.95578423    -0.86800
O966        O  0.89028409  0.04017959  0.54386885    -0.86500
O967        O  0.15053866  0.04270988  0.54148432    -0.86300
O968        O  0.00956706  0.86113736  0.54536558    -0.86700
O969        O  0.85633462  0.86780317  0.55052605    -0.86100
O970        O  0.09259442  0.92182292  0.52755978    -0.87200
O971        O  0.83193150  0.92585625  0.53054132    -0.86300
O972        O  0.02873511  0.91459250  0.91499081    -0.86700
O973        O  0.11310294  0.07100723  0.58063493    -0.86500
O974        O  0.95718324  0.06702303  0.58313040    -0.86100
O975        O  0.87545250  0.91291058  0.91626809    -0.86500
O976        O  0.90660499  0.81749690  0.98857673    -0.86800
O977        O  0.94051088  0.87837028  0.58264082    -0.88200
Zr978      Zr  0.96943193  0.94700580  0.93513430     2.83100
Zr979      Zr  0.01765764  0.03452540  0.56419152     2.83500
Zr980      Zr  0.08487048  0.98949458  0.49947436     2.84100
Zr981      Zr  0.90462629  0.99060760  0.49995060     2.83400
Zr982      Zr  0.94676293  0.89308932  0.52664687     2.84200
O983        O  0.93630357  0.96398099  0.54454613    -1.08700
O984        O  0.00214059  0.91981853  0.98040436    -1.08200
C985        C  0.90435315  0.81160375  0.95708100     1.06400
C986        C  0.95525667  0.90800101  0.60825494     1.09000
C987        C  0.07076560  0.91547969  0.92734780     1.06600
C988        C  0.83530846  0.91451102  0.92912818     1.07000
C989        C  0.91483991  0.06559055  0.57064500     1.06500
C990        C  0.15323618  0.06963057  0.56754667     1.06100
C991        C  0.06111755  0.88037298  0.54380586     1.06500
C992        C  0.82448950  0.88756831  0.54920080     1.06000
H993        H  0.04424259  0.95542761  0.56332276     0.32700
O994        O  0.02898672  0.96457983  0.54498099    -1.29800
H995        H  0.87805088  0.88847442  0.97617540     0.32700
O996        O  0.91255922  0.91892651  0.98143804    -1.31200
C997        C  0.77683129  0.86981380  0.57103275     0.03000
C998        C  0.75094484  0.82070903  0.58767890    -0.13200
C999        C  0.70364480  0.80679114  0.60517501     0.00500
C1000       C  0.68169611  0.83969730  0.60458553    -0.11700
C1001       C  0.71069562  0.89109001  0.59354190     0.03000
C1002       C  0.75787478  0.90621108  0.57644100    -0.11100
H1003       H  0.76734606  0.79448962  0.58739240     0.08600
H1004       H  0.64543264  0.82833816  0.61814351     0.06100
H1005       H  0.78005919  0.94661015  0.56782894     0.05900
C1006       C  0.78071190  0.88349533  0.91420416     0.03000
C1007       C  0.75442606  0.82762294  0.90829563    -0.13200
C1008       C  0.69804460  0.79857509  0.90355919     0.00500
C1009       C  0.66954444  0.82539044  0.90582034    -0.11700
C1010       C  0.69619574  0.88034068  0.90344512     0.03000
C1011       C  0.75127641  0.90955902  0.90988777    -0.11100
H1012       H  0.77703943  0.80720563  0.90770056     0.08600
H1013       H  0.62688954  0.80344851  0.90036712     0.06100
H1014       H  0.77144908  0.95252152  0.91046070     0.05900
C1015       C  0.93783634  0.87236482  0.63734796     0.03000
C1016       C  0.96571511  0.84396239  0.64283115    -0.13200
C1017       C  0.93766517  0.78950043  0.65122382     0.00500
C1018       C  0.88322600  0.76427101  0.65570994    -0.11700
C1019       C  0.85455067  0.79015461  0.65198874     0.03000
C1020       C  0.88173632  0.84478897  0.64370821    -0.11100
H1021       H  0.00763554  0.86222237  0.63696497     0.08600
H1022       H  0.86239036  0.72287494  0.66304429     0.06100
H1023       H  0.85849497  0.86376776  0.63850435     0.05900
C1024       C  0.87613789  0.75688751  0.94507642     0.03000
C1025       C  0.82030589  0.72952423  0.94338472    -0.13200
C1026       C  0.79281421  0.67844102  0.92931407     0.00500
C1027       C  0.82112586  0.65338943  0.91972244    -0.11700
C1028       C  0.87677319  0.68195579  0.91919072     0.03000
C1029       C  0.90446776  0.73326611  0.93289401    -0.11100
H1030       H  0.79877021  0.74988992  0.94968976     0.08600
H1031       H  0.80013507  0.61544422  0.90660751     0.06100
H1032       H  0.94750608  0.75559536  0.93243590     0.05900
C1033       C  0.71529680  0.94600001  0.64052103    -0.26500
C1034       C  0.69576514  0.92856014  0.60835051    -0.14600
C1035       C  0.64762541  0.92614960  0.59852075     0.36100
C1036       C  0.61762628  0.93556493  0.62185603    -0.25900
C1037       C  0.63374484  0.94638735  0.65529301    -0.15200
C1038       C  0.68441421  0.95327183  0.66432919     0.37200
N1039       N  0.70332611  0.96447178  0.69794873    -0.89400
H1040       H  0.75171777  0.94693242  0.64828468     0.18300
H1041       H  0.58039426  0.93254632  0.61380561     0.18300
N1042       N  0.62686991  0.91160820  0.56541423    -0.88400
H1043       H  0.74180206  0.96995697  0.70010796     0.35600
H1044       H  0.67858001  0.93083516  0.71159579     0.40700
H1045       H  0.65358899  0.90731050  0.55040026     0.40400
H1046       H  0.59190668  0.87456815  0.56611215     0.35300
C1047       C  0.78480675  0.09107484  0.65687149    -0.26500
C1048       C  0.77077949  0.08751423  0.62336504    -0.14600
C1049       C  0.72400644  0.08841730  0.61424855     0.36100
C1050       C  0.69379103  0.09495886  0.63870718    -0.25900
C1051       C  0.70905603  0.10081212  0.67222942    -0.15200
C1052       C  0.75494346  0.09823483  0.68120408     0.37200
N1053       N  0.77249834  0.10463623  0.71491531    -0.89400
H1054       H  0.82178835  0.09266334  0.66403548     0.18300
H1055       H  0.65752870  0.09462116  0.63135611     0.18300
N1056       N  0.70716719  0.08462323  0.58040880    -0.88400
H1057       H  0.81119438  0.13731326  0.71670318     0.35600
H1058       H  0.77423301  0.07088798  0.72155560     0.40700
H1059       H  0.73208842  0.07851429  0.56480076     0.40400
H1060       H  0.66944115  0.05061342  0.57788972     0.35300
C1061       C  0.71302520  0.04413399  0.85075234    -0.26500
C1062       C  0.68220278  0.06846547  0.85624656    -0.14600
C1063       C  0.68741450  0.09328362  0.88750773     0.36100
C1064       C  0.72542073  0.09667653  0.91058045    -0.25900
C1065       C  0.76089967  0.07864638  0.90294767    -0.15200
C1066       C  0.75234102  0.04925793  0.87327102     0.37200
N1067       N  0.78573476  0.02806378  0.86366211    -0.89400
H1068       H  0.70885656  0.02309144  0.82778286     0.18300
H1069       H  0.73217659  0.12012353  0.93290996     0.18300
N1070       N  0.65754462  0.11849307  0.89611075    -0.88400
H1071       H  0.80705875  0.04866968  0.84303871     0.35600
H1072       H  0.81370331  0.03368291  0.88190280     0.40700
H1073       H  0.61713490  0.08964861  0.89633067     0.40400
H1074       H  0.66429348  0.14737216  0.87870770     0.35300
C1075       C  0.58910921  0.89983506  0.86391238    -0.26500
C1076       C  0.60485704  0.90562487  0.83084355    -0.14600
C1077       C  0.65407683  0.90907643  0.82319931     0.36100
C1078       C  0.68618701  0.90729442  0.84859436    -0.25900
C1079       C  0.67009416  0.90077776  0.88146317    -0.15200
C1080       C  0.62098723  0.89723433  0.88926406     0.37200
N1081       N  0.60185905  0.88985248  0.92240543    -0.89400
H1082       H  0.55222986  0.89849271  0.87032444     0.18300
H1083       H  0.72263580  0.90748795  0.84243960     0.18300
N1084       N  0.67121560  0.91392286  0.78966559    -0.88400
H1085       H  0.59807018  0.92270346  0.92880551     0.35600
H1086       H  0.62971143  0.89005638  0.93905030     0.40700
H1087       H  0.64417151  0.87894343  0.77703298     0.40400
H1088       H  0.70859191  0.91670372  0.78842168     0.35300
C1089       C  0.36978378  0.09310090  0.60334011    -0.26500
C1090       C  0.31953935  0.08322810  0.61341898    -0.14600
C1091       C  0.30531407  0.07150860  0.64648216     0.36100
C1092       C  0.34291529  0.07444737  0.66943084    -0.25900
C1093       C  0.39510047  0.08851041  0.66013420    -0.15200
C1094       C  0.40762013  0.09575940  0.62617286     0.37200
N1095       N  0.45850490  0.10741550  0.61398653    -0.89400
H1096       H  0.38119709  0.10318139  0.57795054     0.18300
H1097       H  0.33108419  0.06686443  0.69490847     0.18300
N1098       N  0.25413797  0.06138809  0.65734334    -0.88400
H1099       H  0.46496261  0.07609100  0.61970962     0.35600
H1100       H  0.48814421  0.14271988  0.62508276     0.40700
H1101       H  0.23482188  0.02417236  0.66828459     0.40400
H1102       H  0.26014357  0.08991598  0.67531645     0.35300
C1103       C  0.31591197  0.92207414  0.61703208    -0.26500
C1104       C  0.31106285  0.93544314  0.64973457    -0.14600
C1105       C  0.26383420  0.93583036  0.65836768     0.36100
C1106       C  0.22391899  0.92377807  0.63424423    -0.25900
C1107       C  0.22757374  0.90726932  0.60229388    -0.15200
C1108       C  0.27464083  0.90715793  0.59350883     0.37200
N1109       N  0.28072706  0.88951044  0.56151318    -0.89400
H1110       H  0.35150881  0.92152325  0.60974155     0.18300
H1111       H  0.18689812  0.92157690  0.64140655     0.18300
N1112       N  0.25479125  0.94530308  0.69188879    -0.88400
H1113       H  0.31387572  0.92130965  0.55077764     0.35600
H1114       H  0.24812492  0.88064759  0.54607215     0.40700
H1115       H  0.25161703  0.91386239  0.70586596     0.40400
H1116       H  0.21814285  0.94389631  0.69394325     0.35300
C1117       C  0.25941459  0.92807025  0.81742577    -0.26500
C1118       C  0.30294141  0.92326334  0.82875722    -0.14600
C1119       C  0.30878716  0.91814124  0.86300018     0.36100
C1120       C  0.26968789  0.91495308  0.88450031    -0.25900
C1121       C  0.22507198  0.91676740  0.87266969    -0.15200
C1122       C  0.22070774  0.92519892  0.83900047     0.37200
N1123       N  0.17557673  0.92832114  0.82663663    -0.89400
H1124       H  0.25487460  0.93326209  0.79144997     0.18300
H1125       H  0.27188130  0.90702342  0.91031626     0.18300
N1126       N  0.35376284  0.91550985  0.87598181    -0.88400
H1127       H  0.17872421  0.93534311  0.80134616     0.35600
H1128       H  0.14132849  0.89130113  0.82963116     0.40700
H1129       H  0.34865151  0.87854226  0.86894330     0.40400
H1130       H  0.35396760  0.91615195  0.90172320     0.35300
C1131       C  0.29220074  0.07026597  0.86051128    -0.26500
C1132       C  0.30884628  0.07956046  0.89371053    -0.14600
C1133       C  0.35423561  0.07668041  0.90325300     0.36100
C1134       C  0.38354728  0.06745089  0.87916729    -0.25900
C1135       C  0.36999062  0.06341133  0.84536011    -0.15200
C1136       C  0.32264610  0.06350298  0.83628612     0.37200
N1137       N  0.30669490  0.05999871  0.80241013    -0.89400
H1138       H  0.25827717  0.07401734  0.85278592     0.18300
H1139       H  0.41864602  0.06585848  0.88683976     0.18300
N1140       N  0.37164316  0.08532270  0.93716792    -0.88400
H1141       H  0.30582082  0.09455991  0.79677819     0.35600
H1142       H  0.26781494  0.02795159  0.79956682     0.40700
H1143       H  0.38390037  0.12479985  0.94345932     0.40400
H1144       H  0.40514401  0.08097054  0.94026381     0.35300
C1145       C  0.08199883  0.76389456  0.65045229    -0.26500
C1146       C  0.07684658  0.74641105  0.61750848    -0.14600
C1147       C  0.07840008  0.69982677  0.61040175     0.36100
C1148       C  0.08647116  0.67247015  0.63612623    -0.25900
C1149       C  0.09378191  0.69101644  0.66905526    -0.15200
C1150       C  0.09154888  0.73750441  0.67615466     0.37200
N1151       N  0.10049183  0.75865797  0.70922604    -0.89400
H1152       H  0.08375130  0.80138841  0.65567920     0.18300
H1153       H  0.08631798  0.63596168  0.63032801     0.18300
N1154       N  0.07484963  0.68237006  0.57677940    -0.88400
H1155       H  0.13975415  0.76996785  0.71604119     0.35600
H1156       H  0.09777880  0.79316800  0.71017189     0.40700
H1157       H  0.03686758  0.67207283  0.56771423     0.40400
H1158       H  0.07764531  0.64791660  0.57550333     0.35300
C1159       C  0.96596395  0.70384456  0.70370170    -0.26500
C1160       C  0.95115395  0.65882975  0.68301260    -0.14600
C1161       C  0.94446933  0.66401324  0.64895003     0.36100
C1162       C  0.94848673  0.71177982  0.63725987    -0.25900
C1163       C  0.96092898  0.75533442  0.65861994    -0.15200
C1164       C  0.97150108  0.75134342  0.69184767     0.37200
N1165       N  0.98288228  0.79410843  0.71440050    -0.89400
H1166       H  0.97255669  0.70245883  0.72988241     0.18300
H1167       H  0.93825332  0.71378864  0.61178653     0.18300
N1168       N  0.93253596  0.62087262  0.62647512    -0.88400
H1169       H  0.01930561  0.80541950  0.72632283     0.35600
H1170       H  0.95315142  0.77988687  0.73213907     0.40700
H1171       H  0.96569027  0.61560075  0.62633095     0.40400
H1172       H  0.92803229  0.63090980  0.60248024     0.35300
C1173       C  0.90669147  0.61876949  0.90399411    -0.26500
C1174       C  0.90248311  0.66318409  0.89597197    -0.14600
C1175       C  0.91109194  0.68153401  0.86326990     0.36100
C1176       C  0.92243377  0.65440366  0.83912639    -0.25900
C1177       C  0.92384109  0.60824007  0.84667458    -0.15200
C1178       C  0.91775060  0.59119885  0.87967302     0.37200
N1179       N  0.92229490  0.54577157  0.88828577    -0.89400
H1180       H  0.89911885  0.60437291  0.92898180     0.18300
H1181       H  0.92778712  0.66810007  0.81398592     0.18300
N1182       N  0.90519171  0.72558727  0.85352136    -0.88400
H1183       H  0.91634138  0.53840781  0.91347283     0.35600
H1184       H  0.96151642  0.55514453  0.88380708     0.40700
H1185       H  0.93231240  0.75916612  0.86725483     0.40400
H1186       H  0.86645849  0.71710187  0.85879238     0.35300
C1187       C  0.06399273  0.70424225  0.83083837    -0.26500
C1188       C  0.07744178  0.66902081  0.84625539    -0.14600
C1189       C  0.08259365  0.67168116  0.88103140     0.36100
C1190       C  0.08027296  0.71290721  0.89864930    -0.25900
C1191       C  0.07076458  0.75017735  0.88246285    -0.15200
C1192       C  0.05998761  0.74366603  0.84845702     0.37200
N1193       N  0.05033966  0.78080384  0.83108368    -0.89400
H1194       H  0.05780709  0.70252855  0.80440489     0.18300
H1195       H  0.08999521  0.71854210  0.92474608     0.18300
N1196       N  0.09312058  0.63487617  0.89820961    -0.88400
H1197       H  0.01352697  0.75955359  0.81871195     0.35600
H1198       H  0.07979106  0.79893783  0.81336341     0.35900
H1199       H  0.05907328  0.59727577  0.89567029     0.40400
H1200       H  0.09812042  0.64382986  0.92344289     0.35300
C1201       C  0.92036536  0.32020939  0.61535105    -0.26500
C1202       C  0.91795541  0.31563108  0.64982357    -0.14600
C1203       C  0.92152691  0.27265512  0.66371020     0.36100
C1204       C  0.92790995  0.23697266  0.64361611    -0.25900
C1205       C  0.92479355  0.23821095  0.60934703    -0.15200
C1206       C  0.92210410  0.28126083  0.59501392     0.37200
N1207       N  0.91908929  0.28538965  0.55995868    -0.89400
H1208       H  0.91857451  0.35285247  0.60401465     0.18300
H1209       H  0.92781574  0.20335738  0.65506943     0.18300
N1210       N  0.91632290  0.26305204  0.69836552    -0.88400
H1211       H  0.88129823  0.27969807  0.55409118     0.35600
H1212       H  0.92242526  0.25536963  0.54782452     0.40700
H1213       H  0.95061235  0.26372464  0.70703831     0.40400
H1214       H  0.88383631  0.22502083  0.70200195     0.35300
C1215       C  0.06574330  0.29880587  0.63038285    -0.26500
C1216       C  0.07523809  0.31841322  0.59835755    -0.14600
C1217       C  0.07308918  0.36459413  0.59129271     0.36100
C1218       C  0.06299305  0.39116109  0.61688536    -0.25900
C1219       C  0.05765771  0.37368450  0.64953261    -0.15200
C1220       C  0.05919992  0.32697628  0.65614244     0.37200
N1221       N  0.05812114  0.30990977  0.68917930    -0.89400
H1222       H  0.06863344  0.26399843  0.63606471     0.18300
H1223       H  0.06088116  0.42648624  0.61149851     0.18300
N1224       N  0.08241249  0.38488876  0.55845356    -0.88400
H1225       H  0.09450829  0.31168363  0.69414071     0.35600
H1226       H  0.02829052  0.26997721  0.69020871     0.40700
H1227       H  0.12208830  0.39729975  0.55288279     0.40400
H1228       H  0.07842185  0.41864135  0.55729457     0.35300
C1229       C  0.04814081  0.32168771  0.84910967    -0.26500
C1230       C  0.03749726  0.32327671  0.81540083    -0.14600
C1231       C  0.02282897  0.27659303  0.79594811     0.36100
C1232       C  0.01922142  0.23127179  0.81001197    -0.25900
C1233       C  0.03238825  0.23049538  0.84291478    -0.15200
C1234       C  0.04697400  0.27637209  0.86285335     0.37200
N1235       N  0.06204121  0.27727317  0.89678399    -0.89400
H1236       H  0.05838678  0.35608171  0.86464631     0.18300
H1237       H  0.01099796  0.19779197  0.79402789     0.18300
N1238       N  0.01314159  0.27469608  0.76123747    -0.88400
H1239       H  0.07028339  0.31298295  0.90828170     0.35600
H1240       H  0.09759682  0.27624667  0.89751336     0.40700
H1241       H  0.97467124  0.24291318  0.75636235     0.40400
H1242       H  0.04021043  0.26636350  0.74960996     0.35300
C1243       C  0.90241120  0.25078088  0.82138224    -0.26500
C1244       C  0.91109062  0.30063649  0.83201469    -0.14600
C1245       C  0.92669202  0.31683415  0.86530796     0.36100
C1246       C  0.93084586  0.28197201  0.88727036    -0.25900
C1247       C  0.92004077  0.23155507  0.87681914    -0.15200
C1248       C  0.90630196  0.21618179  0.84344307     0.37200
N1249       N  0.89060212  0.16302662  0.83285739    -0.89400
H1250       H  0.89113860  0.23786151  0.79597676     0.18300
H1251       H  0.93884900  0.29264046  0.91318841     0.18300
N1252       N  0.93791852  0.36835164  0.87692041    -0.88400
H1253       H  0.91351533  0.16491741  0.81270906     0.35600
H1254       H  0.85080725  0.14466038  0.82470510     0.40700
H1255       H  0.97259685  0.39663744  0.86541721     0.40400
H1256       H  0.94661986  0.37294429  0.90219176     0.35300
C1257       C  0.66533236  0.75446444  0.85065108    -0.26500
C1258       C  0.66847117  0.74775460  0.88452571    -0.14600
C1259       C  0.62740456  0.70087389  0.89881941     0.36100
C1260       C  0.58434476  0.66279887  0.87899328    -0.25900
C1261       C  0.57938046  0.67168609  0.84541651    -0.15200
C1262       C  0.62080452  0.71890574  0.83152530     0.37200
N1263       N  0.61728765  0.73263277  0.79815478    -0.89400
H1264       H  0.69485957  0.79128230  0.83960071     0.18300
H1265       H  0.55406057  0.62664012  0.89015975     0.18300
N1266       N  0.62748319  0.69151361  0.93346032    -0.88400
H1267       H  0.65093147  0.73765892  0.78582352     0.35600
H1268       H  0.61831898  0.76911090  0.79837477     0.40700
H1269       H  0.66205008  0.72154275  0.94507833     0.40400
H1270       H  0.59510521  0.69280967  0.94358284     0.35300
C1271       C  0.74910379  0.68924788  0.88176126    -0.26500
C1272       C  0.74295239  0.66146379  0.91085839    -0.14600
C1273       C  0.69884317  0.60982976  0.91402663     0.36100
C1274       C  0.66459164  0.58553604  0.88683634    -0.25900
C1275       C  0.67458572  0.61116019  0.85629268    -0.15200
C1276       C  0.71710394  0.66419897  0.85418848     0.37200
N1277       N  0.73297526  0.69172815  0.82372529    -0.89400
H1278       H  0.78386511  0.72837134  0.87887213     0.18300
H1279       H  0.63103834  0.54562709  0.88935505     0.18300
N1280       N  0.68924009  0.58052291  0.94389967    -0.88400
H1281       H  0.70283566  0.69803788  0.81465717     0.35600
H1282       H  0.73959014  0.66813763  0.80706745     0.40700
H1283       H  0.71661819  0.60381435  0.96243164     0.40400
H1284       H  0.69508818  0.54844833  0.93905367     0.35300
C1285       C  0.78345881  0.75882641  0.69221191    -0.26500
C1286       C  0.79693614  0.75650132  0.65970799    -0.14600
C1287       C  0.76371580  0.70965551  0.64082231     0.36100
C1288       C  0.71988130  0.66548787  0.65558122    -0.25900
C1289       C  0.70871165  0.66622414  0.68915404    -0.15200
C1290       C  0.74075075  0.71535533  0.70707554     0.37200
N1291       N  0.73328909  0.72270138  0.74105609    -0.89400
H1292       H  0.80937544  0.79361931  0.70727190     0.18300
H1293       H  0.69525354  0.62987786  0.64093174     0.18300
N1294       N  0.77594717  0.70637756  0.60696553    -0.88400
H1295       H  0.73619436  0.69399954  0.75465088     0.35600
H1296       H  0.69612112  0.71973972  0.74387837     0.40700
H1297       H  0.81187931  0.70612608  0.60631542     0.40400
H1298       H  0.74698135  0.67038475  0.59619041     0.35300
C1299       C  0.64288020  0.74458298  0.68491592    -0.26500
C1300       C  0.59903556  0.69628401  0.67390375    -0.14600
C1301       C  0.59640786  0.68112548  0.64035506     0.36100
C1302       C  0.63588476  0.71499207  0.61851604    -0.25900
C1303       C  0.67841789  0.76393298  0.62932695    -0.15200
C1304       C  0.68212580  0.77871680  0.66301143     0.37200
N1305       N  0.72308176  0.83078033  0.67403283    -0.89400
H1306       H  0.64604129  0.75620501  0.71063356     0.18300
H1307       H  0.63143517  0.70444206  0.59254554     0.18300
N1308       N  0.55410319  0.63094527  0.62826533    -0.88400
H1309       H  0.72070384  0.83566579  0.69937581     0.35600
H1310       H  0.76014234  0.83406306  0.66991272     0.40700
H1311       H  0.57108390  0.60952766  0.61851516     0.40400
H1312       H  0.53408480  0.63805350  0.60917411     0.35300
C1313       C  0.26697615  0.32859012  0.65758654    -0.26500
C1314       C  0.31412904  0.37510775  0.64951242    -0.14600
C1315       C  0.32313201  0.39119044  0.61640967     0.36100
C1316       C  0.28321254  0.36301993  0.59248592    -0.25900
C1317       C  0.23511369  0.31835832  0.60105491    -0.15200
C1318       C  0.22770432  0.29995777  0.63371236     0.37200
N1319       N  0.17944354  0.25384214  0.64360991    -0.89400
H1320       H  0.25991144  0.31505005  0.68277299     0.18300
H1321       H  0.28871140  0.37753750  0.56754353     0.18300
N1322       N  0.37254073  0.43623972  0.60701644    -0.88400
H1323       H  0.14737399  0.25990305  0.63904356     0.35600
H1324       H  0.17401611  0.22133001  0.62935712     0.40700
H1325       H  0.38973802  0.42359515  0.58921267     0.40400
H1326       H  0.36410332  0.46376647  0.59622573     0.35300
C1327       C  0.35142379  0.28502364  0.66152627    -0.26500
C1328       C  0.40133122  0.32244272  0.64849218    -0.14600
C1329       C  0.40751361  0.32129767  0.61404439     0.36100
C1330       C  0.36630031  0.28072018  0.59446404    -0.25900
C1331       C  0.31813965  0.24136138  0.60829567    -0.15200
C1332       C  0.30993431  0.24561955  0.64195377     0.37200
N1333       N  0.26062397  0.20749599  0.65674970    -0.89400
H1334       H  0.34455803  0.28547090  0.68763767     0.18300
H1335       H  0.37370955  0.27714758  0.56873922     0.18300
N1336       N  0.45602262  0.35843391  0.59852930    -0.88400
H1337       H  0.25983590  0.21744719  0.68145538     0.35600
H1338       H  0.25886936  0.17072372  0.65659223     0.40700
H1339       H  0.46222390  0.39668697  0.60256736     0.40400
H1340       H  0.48754664  0.35598386  0.60948631     0.35300
C1341       C  0.38973584  0.32081279  0.86705075    -0.26500
C1342       C  0.38692066  0.30184173  0.83457464    -0.14600
C1343       C  0.34537740  0.25042165  0.82582496     0.36100
C1344       C  0.30816221  0.21931320  0.84940574    -0.25900
C1345       C  0.31359527  0.23673109  0.88241560    -0.15200
C1346       C  0.35424450  0.28832656  0.89120398     0.37200
N1347       N  0.36047169  0.30674187  0.92480125    -0.89400
H1348       H  0.42043674  0.36086600  0.87388186     0.18300
H1349       H  0.27825657  0.17875166  0.84279456     0.18300
N1350       N  0.34269002  0.22820873  0.79375213    -0.88400
H1351       H  0.39194618  0.34596375  0.92710081     0.35600
H1352       H  0.37129947  0.28371588  0.93899346     0.40700
H1353       H  0.30479525  0.21546054  0.78362592     0.40400
H1354       H  0.34656375  0.19459746  0.79658594     0.35300
C1355       C  0.20685139  0.22732191  0.80606715    -0.26500
C1356       C  0.19411644  0.22634463  0.83924353    -0.14600
C1357       C  0.22629272  0.27243118  0.85895064     0.36100
C1358       C  0.26964027  0.31791943  0.84529494    -0.25900
C1359       C  0.28052535  0.31989842  0.81160189    -0.15200
C1360       C  0.24748571  0.27371239  0.79181285     0.37200
N1361       N  0.25235001  0.27447509  0.75667773    -0.89400
H1362       H  0.18064871  0.19399878  0.79007339     0.18300
H1363       H  0.29394578  0.35222409  0.86105115     0.18300
N1364       N  0.21208806  0.27464941  0.89233571    -0.88400
H1365       H  0.21607193  0.26690348  0.74606467     0.35600
H1366       H  0.25898136  0.24374804  0.74938004     0.40700
H1367       H  0.20357412  0.30549240  0.89446105     0.40400
H1368       H  0.24541322  0.28456457  0.90738649     0.35300
loop_ 
_geom_bond_atom_site_label_1 
_geom_bond_atom_site_label_2 
_geom_bond_distance 
_geom_bond_site_symmetry_2 
_ccdc_geom_bond_type 
O1          Zr13   2.441       .  S
O1            C3   1.286       .  A
O2          Zr39   2.419       .  S
O2            C3   1.283       .  A
C3          C658   1.483       .  S
O4          Zr16   2.524       .  S
O4            C6   1.295       .  A
O5          Zr40   2.388       .  S
O5            C6   1.269       .  A
C6          C577   1.512       .  S
O7          Zr16   2.532       .  S
O7            C9   1.305       .  A
O8          Zr39   2.357       .  S
O8            C9   1.273       .  A
C9          C675   1.508       .  S
O10         Zr13   2.456       .  S
O10          C12   1.290       .  A
O11         Zr40   2.403       .  S
O11          C12   1.282       .  A
C12         C591   1.475       .  S
Zr13         O14   2.438       .  S
Zr13         O15   2.435       .  S
Zr13         O19   2.275       .  S
Zr13         O20   2.355       .  S
Zr13         O43   2.381       .  S
Zr13         O45   2.379       .  S
O14          H57   0.990       .  S
O15          H56   0.990       .  S
O15          H60   0.990       .  S
Zr16         O17   2.438       .  S
Zr16         O18   2.435       .  S
Zr16         O19   2.279       .  S
Zr16         O20   2.387       .  S
Zr16         O44   2.397       .  S
Zr16         O46   2.411       .  S
O17          H58   0.990       .  S
O17          H61   0.990       .  S
O18          H51   0.990       .  S
O19         Zr39   2.245       .  S
O20         Zr40   2.393       .  S
O20          H47   0.959       .  S
O21         Zr33   2.556       .  S
O21          C23   1.308       .  A
O22         Zr40   2.360       .  S
O22          C23   1.273       .  A
C23         C605   1.515       .  S
O24         Zr36   2.428       .  S
O24          C26   1.283       .  A
O25         Zr39   2.405       .  S
O25          C26   1.281       .  A
C26         C630   1.473       .  S
O27         Zr36   2.481       .  S
O27          C29   1.294       .  A
O28         Zr40   2.412       .  S
O28          C29   1.284       .  A
C29         C616   1.488       .  S
O30         Zr33   2.510       .  S
O30          C32   1.296       .  A
O31         Zr39   2.379       .  S
O31          C32   1.270       .  A
C32         C644   1.504       .  S
Zr33         O34   2.438       .  S
Zr33         O35   2.434       .  S
Zr33         O42   2.296       .  S
Zr33         O41   2.339       .  S
Zr33         O45   2.400       .  S
Zr33         O43   2.397       .  S
O34          H54   0.990       .  S
O34          H59   0.991       .  S
O35          H55   0.990       .  S
Zr36         O37   2.437       .  S
Zr36         O38   2.434       .  S
Zr36         O42   2.286       .  S
Zr36         O41   2.358       .  S
Zr36         O46   2.374       .  S
Zr36         O44   2.390       .  S
O37          H53   0.990       .  S
O38          H52   0.990       .  S
O38          H62   0.991       .  S
Zr39         O42   2.263       .  S
Zr39         O44   2.390       .  S
Zr39         O45   2.391       .  S
Zr40         O41   2.380       .  S
Zr40         O43   2.392       .  S
Zr40         O46   2.388       .  S
O41          H49   0.958       .  S
O44          H48   0.964       .  S
O45          H50   0.969       .  S
O63         Zr75   2.536       .  S
O63          C65   1.305       .  A
O64        Zr101   2.364   1_455  S
O64          C65   1.274       .  A
C65         C546   1.515       .  S
O66         Zr78   2.460       .  S
O66          C68   1.289       .  A
O67        Zr102   2.414   1_655  S
O67          C68   1.284       .  A
C68         C493   1.478       .  S
O69         Zr78   2.449       .  S
O69          C71   1.287       .  A
O70        Zr101   2.404       .  S
O70          C71   1.280       .  A
C71         C560   1.484       .  S
O72         Zr75   2.521       .  S
O72          C74   1.296       .  A
O73        Zr102   2.393       .  S
O73          C74   1.274       .  A
C74         C504   1.510       .  S
Zr75         O76   2.436       .  S
Zr75         O77   2.435       .  S
Zr75         O81   2.281   1_455  S
Zr75         O82   2.391   1_455  S
Zr75        O105   2.407       .  S
Zr75        O107   2.398       .  S
O76         H119   0.990       .  S
O77         H118   0.990       .  S
O77         H122   0.990       .  S
Zr78         O79   2.442       .  S
Zr78         O80   2.437       .  S
Zr78         O81   2.279       .  S
Zr78         O82   2.359       .  S
Zr78        O106   2.376       .  S
Zr78        O108   2.379       .  S
O79         H120   0.989       .  S
O79         H123   0.992       .  S
O80         H113   0.990       .  S
O81        Zr101   2.247       .  S
O82        Zr102   2.393   1_655  S
O82         H109   0.956       .  S
O83         Zr95   2.471       .  S
O83          C85   1.293       .  A
O84        Zr102   2.418       .  S
O84          C85   1.285       .  A
C85         C465   1.490       .  S
O86         Zr98   2.520       .  S
O86          C88   1.297       .  A
O87        Zr101   2.377       .  S
O87          C88   1.267       .  A
C88         C518   1.510       .  S
O89         Zr98   2.544       .  S
O89          C91   1.306       .  A
O90        Zr102   2.363   1_655  S
O90          C91   1.278       .  A
C91         C476   1.510       .  S
O92         Zr95   2.446       .  S
O92          C94   1.287       .  A
O93        Zr101   2.408   1_455  S
O93          C94   1.282       .  A
C94         C535   1.481       .  S
Zr95         O96   2.440       .  S
Zr95         O97   2.433       .  S
Zr95        O104   2.281   1_455  S
Zr95        O103   2.367       .  S
Zr95        O107   2.385       .  S
Zr95        O105   2.380       .  S
O96         H116   0.990       .  S
O96         H121   0.990       .  S
O97         H117   0.990       .  S
Zr98         O99   2.435       .  S
Zr98        O100   2.434       .  S
Zr98        O104   2.292       .  S
Zr98        O103   2.347   1_655  S
Zr98        O108   2.398       .  S
Zr98        O106   2.397       .  S
O99         H115   0.990       .  S
O100        H114   0.990       .  S
O100        H124   0.990       .  S
Zr101       O104   2.256       .  S
Zr101       O106   2.389       .  S
Zr101       O107   2.386   1_655  S
Zr102       O103   2.387       .  S
Zr102       O105   2.390       .  S
Zr102       O108   2.390   1_455  S
O103        H111   0.961       .  S
O106        H110   0.966       .  S
O107        H112   0.965       .  S
O125       Zr137   2.449       .  S
O125        C127   1.287       .  A
O126       Zr163   2.393   1_565  S
O126        C127   1.280       .  A
C127        C434   1.486       .  S
O128       Zr140   2.474       .  S
O128        C130   1.292       .  A
O129       Zr164   2.435       .  S
O129        C130   1.291       .  A
C130        C378   1.504       .  S
O131       Zr140   2.468       .  S
O131        C133   1.292       .  A
O132       Zr163   2.417       .  S
O132        C133   1.283       .  A
C133        C451   1.504       .  S
O134       Zr137   2.475       .  S
O134        C136   1.293       .  A
O135       Zr164   2.384   1_565  S
O135        C136   1.280       .  A
C136        C392   1.481       .  S
Zr137       O138   2.437       .  S
Zr137       O139   2.434       .  S
Zr137       O143   2.282       .  S
Zr137       O144   2.360       .  S
Zr137       O167   2.379       .  S
Zr137       O169   2.383       .  S
O138        H181   0.990       .  S
O139        H180   0.990       .  S
O139        H184   0.990       .  S
Zr140       O141   2.438       .  S
Zr140       O142   2.434       .  S
Zr140       O143   2.276   1_545  S
Zr140       O144   2.368   1_545  S
Zr140       O168   2.381       .  S
Zr140       O170   2.395       .  S
O141        H182   0.989       .  S
O141        H185   0.990       .  S
O142        H175   0.990       .  S
O143       Zr163   2.253   1_565  S
O144       Zr164   2.394   1_565  S
O144        H171   0.956       .  S
O145       Zr157   2.481       .  S
O145        C147   1.295       .  A
O146       Zr164   2.436   1_565  S
O146        C147   1.289       .  A
C147        C353   1.506       .  S
O148       Zr160   2.444       .  S
O148        C150   1.285       .  A
O149       Zr163   2.389       .  S
O149        C150   1.277       .  A
C150        C409   1.484       .  S
O151       Zr160   2.480       .  S
O151        C153   1.294       .  A
O152       Zr164   2.403       .  S
O152        C153   1.282       .  A
C153        C367   1.489       .  S
O154       Zr157   2.464       .  S
O154        C156   1.292       .  A
O155       Zr163   2.413   1_565  S
O155        C156   1.283       .  A
C156        C420   1.499       .  S
Zr157       O158   2.438       .  S
Zr157       O159   2.434       .  S
Zr157       O166   2.281   1_565  S
Zr157       O165   2.355   1_565  S
Zr157       O169   2.380       .  S
Zr157       O167   2.385       .  S
O158        H178   0.990       .  S
O158        H183   0.991       .  S
O159        H179   0.990       .  S
Zr160       O161   2.438       .  S
Zr160       O162   2.435       .  S
Zr160       O166   2.288       .  S
Zr160       O165   2.367       .  S
Zr160       O170   2.382       .  S
Zr160       O168   2.395       .  S
O161        H177   0.990       .  S
O162        H176   0.990       .  S
O162        H186   0.990       .  S
Zr163       O166   2.257       .  S
Zr163       O168   2.391       .  S
Zr163       O169   2.391   1_545  S
Zr164       O165   2.384       .  S
Zr164       O167   2.396   1_545  S
Zr164       O170   2.393       .  S
O165        H173   0.964       .  S
O168        H172   0.964       .  S
O169        H174   0.963       .  S
C187        C271   1.498       .  S
C187        C188   1.434       .  A
C187        C192   1.434       .  A
C188        C189   1.419       .  A
C188        H193   1.083       .  S
C189        C672   1.486       .  S
C189        C190   1.379       .  A
C190        C191   1.378       .  A
C190        H194   1.088       .  S
C191        C549   1.486       .  S
C191        C192   1.419       .  A
C192        H195   1.084   1_455  S
C196        C270   1.455       .  S
C196        C197   1.397       .  A
C196        C201   1.404       .  A
C197        C198   1.394       .  A
C197        H202   1.081       .  S
C198        C633   1.463       .  S
C198        C199   1.395       .  A
C199        C200   1.397       .  A
C199        H203   1.086       .  S
C200        C532   1.468       .  S
C200        C201   1.401       .  A
C201        H204   1.081       .  S
C205        C307   1.509       .  S
C205        C206   1.429       .  A
C205        C210   1.419       .  A
C206        C207   1.402       .  A
C206        H211   1.083       .  S
C207        C423   1.483       .  S
C207        C208   1.381       .  A
C208        C209   1.392       .  A
C208        H212   1.088       .  S
C209        C462   1.476       .  S
C209        C210   1.420       .  A
C210        H213   1.083       .  S
C214        C305   1.493       .  S
C214        C215   1.421       .  A
C214        C219   1.409       .  A
C215        C216   1.421       .  A
C215        H220   1.080       .  S
C216        C521   1.489       .  S
C216        C217   1.393       .  A
C217        C218   1.391       .  A
C217        H221   1.087       .  S
C218        C364   1.474       .  S
C218        C219   1.404       .  A
C219        H222   1.082       .  S
C223        C273   1.499       .  S
C223        C224   1.416       .  A
C223        C228   1.429       .  A
C224        C225   1.413       .  A
C224        H229   1.081       .  S
C225        C563   1.469       .  S
C225        C226   1.387       .  A
C226        C227   1.378       .  A
C226        H230   1.088       .  S
C227        C381   1.480       .  S
C227        C228   1.400       .  A
C228        H231   1.083       .  S
C232        C272   1.497       .  S
C232        C233   1.412       .  A
C232        C237   1.428       .  A
C233        C234   1.412       .  A
C233        H238   1.081       .  S
C234        C661   1.471       .  S
C234        C235   1.393       .  A
C235        C236   1.383       .  A
C235        H239   1.088       .  S
C236        C448   1.484       .  S
C236        C237   1.403       .  A
C237        H240   1.082       .  S
C241        C303   1.489       .  S
C241        C242   1.408       .  A
C241        C246   1.423       .  A
C242        C243   1.399       .  A
C242        H247   1.083       .  S
C243        C437   1.466       .  S
C243        C244   1.389       .  A
C244        C245   1.391       .  A
C244        H248   1.087       .  S
C245        C507   1.489       .  S
C245        C246   1.420       .  A
C246        H249   1.078       .  S
C250        C306   1.480       .  S
C250        C251   1.405       .  A
C250        C255   1.419       .  A
C251        C252   1.395       .  A
C251        H256   1.084       .  S
C252        C406   1.464       .  S
C252        C253   1.390       .  A
C253        C254   1.391       .  A
C253        H257   1.087       .  S
C254        C647   1.485       .  S
C254        C255   1.418       .  A
C255        H258   1.079       .  S
O259       Zr295   2.455       .  S
O259        C270   1.297       .  A
O260       Zr294   2.611   1_445  S
O260        C271   1.328       .  A
O261       Zr267   2.525       .  S
O261        C272   1.306       .  A
O262       Zr267   2.516   1_655  S
O262        C273   1.304       .  A
O263       Zr981   2.380   1_545  S
O263        C273   1.281       .  A
O264       Zr980   2.387   1_545  S
O264        C272   1.282       .  A
O265       Zr267   2.315       .  S
O265        C271   1.270       .  A
O266       Zr951   2.418   1_554  S
O266        C270   1.288       .  A
Zr267       O950   2.425       .  S
Zr267       O268   2.349   1_455  S
Zr267       O275   2.350       .  S
Zr267       O953   2.334       .  S
Zr267       O961   2.333   1_455  S
O268       Zr294   2.344   1_545  S
O268       Zr981   2.331   1_545  S
O269       Zr295   2.377       .  S
O269       Zr296   2.329   1_544  S
O269       Zr951   2.333   1_554  S
H274        O275   0.966       .  S
O275       Zr294   2.335   1_445  S
O275       Zr980   2.331   1_545  S
H276        O277   0.966       .  S
O277       Zr295   2.372   1_655  S
O277       Zr297   2.324   1_544  S
O277       Zr951   2.334   1_654  S
O278       Zr294   2.457       .  S
O278        C301   1.297       .  A
O279       Zr295   2.610   1_665  S
O279        C302   1.328       .  A
O280       Zr980   2.437       .  S
O280        C303   1.291       .  A
O281       Zr981   2.444       .  S
O281        C304   1.294       .  A
O282       Zr297   2.440   1_544  S
O282        C305   1.292       .  A
O283       Zr296   2.419   1_544  S
O283        C306   1.289       .  A
O284       Zr298   2.540   1_455  S
O284        C307   1.308       .  A
O285       Zr298   2.545       .  S
O285        C308   1.309       .  A
O286       Zr296   2.393   1_554  S
O286        C307   1.284       .  A
O287       Zr297   2.377   1_554  S
O287        C308   1.281       .  A
O288       Zr294   2.487   1_455  S
O288        C303   1.300       .  A
O289       Zr295   2.485       .  S
O289        C306   1.300       .  A
O290       Zr295   2.499   1_655  S
O290        C305   1.303       .  A
O291       Zr294   2.484       .  S
O291        C304   1.300       .  A
O292       Zr982   2.410       .  S
O292        C301   1.287       .  A
O293       Zr298   2.302       .  S
O293        C302   1.268       .  A
Zr294       O300   2.373   1_655  S
Zr294       O312   2.383       .  S
Zr295       O299   2.335   1_445  S
Zr295       O310   2.344   1_545  S
Zr296       O948   2.390   1_565  S
Zr296       O964   2.437       .  S
Zr296       O310   2.341   1_556  S
Zr296       O959   2.332   1_565  S
Zr296       O984   2.318       .  S
Zr297       O947   2.375   1_565  S
Zr297       O965   2.437       .  S
Zr297       O299   2.328   1_556  S
Zr297       O952   2.332   1_565  S
Zr297       O996   2.326       .  S
Zr298       O976   2.401   1_554  S
Zr298       O299   2.339       .  S
Zr298       O310   2.344   1_655  S
Zr298       O984   2.343   1_654  S
Zr298       O996   2.341   1_554  S
O300       Zr980   2.317       .  S
O300       Zr982   2.345   1_455  S
C301        C340   1.451       .  S
C302        C331   1.494       .  S
C304        C322   1.487       .  S
C308        C313   1.510       .  S
H309        O310   0.968       .  S
H311        O312   0.965       .  S
O312       Zr981   2.329       .  S
O312       Zr982   2.339       .  S
C313        C314   1.419       .  A
C313        C318   1.432       .  A
C314        C315   1.420       .  A
C314        H319   1.081       .  S
C315        C619   1.476       .  S
C315        C316   1.390       .  A
C316        C317   1.379       .  A
C316        H320   1.088       .  S
C317        C350   1.485       .  S
C317        C318   1.403       .  A
C318        H321   1.082       .  S
C322        C323   1.425       .  A
C322        C327   1.404       .  A
C323        C324   1.422       .  A
C323        H328   1.082       .  S
C324        C574   1.490       .  S
C324        C325   1.394       .  A
C325        C326   1.390       .  A
C325        H329   1.087       .  S
C326        C395   1.467       .  S
C326        C327   1.397       .  A
C327        H330   1.084       .  S
C331        C332   1.432       .  A
C331        C336   1.433       .  A
C332        C333   1.418       .  A
C332        H337   1.084   1_655  S
C333        C479   1.484       .  S
C333        C334   1.380       .  A
C334        C335   1.380       .  A
C334        H338   1.088       .  S
C335        C602   1.486       .  S
C335        C336   1.420       .  A
C336        H339   1.083       .  S
C340        C341   1.399       .  A
C340        C345   1.400       .  A
C341        C342   1.397       .  A
C341        H346   1.084       .  S
C342        C588   1.462       .  S
C342        C343   1.398       .  A
C343        C344   1.395       .  A
C343        H347   1.086       .  S
C344        C490   1.469       .  S
C344        C345   1.397       .  A
C345        H348   1.080       .  S
C349        C350   1.403       .  A
C349        C354   1.409       .  A
C349        H356   1.084       .  S
C350        C351   1.413       .  A
C351        C352   1.407       .  A
C351        N358   1.437       .  S
C352        C353   1.411       .  A
C352        H357   1.083       .  S
C353        C354   1.421       .  A
C354        N355   1.437       .  S
N355        H359   1.046       .  S
N355        H360   1.046       .  S
N358        H361   1.045       .  S
N358        H362   1.045       .  S
C363        C364   1.402       .  A
C363        C368   1.398       .  A
C363        H370   1.085       .  S
C364        C365   1.414       .  A
C365        C366   1.406       .  A
C365        N372   1.438       .  S
C366        C367   1.411       .  A
C366        H371   1.084       .  S
C367        C368   1.412       .  A
C368        N369   1.433       .  S
N369        H373   1.045       .  S
N369        H374   1.045       .  S
N372        H375   1.045       .  S
N372        H376   1.046       .  S
C377        C378   1.409       .  A
C377        C382   1.400       .  A
C377        H384   1.083       .  S
C378        C379   1.423       .  A
C379        C380   1.403       .  A
C379        N386   1.430       .  S
C380        C381   1.404       .  A
C380        H385   1.084       .  S
C381        C382   1.416       .  A
C382        N383   1.439       .  S
N383        H387   1.044       .  S
N383        H388   1.041       .  S
N386        H389   1.044       .  S
N386        H390   1.045       .  S
C391        C392   1.408       .  A
C391        C396   1.401       .  A
C391        H398   1.084       .  S
C392        C393   1.416       .  A
C393        C394   1.398       .  A
C393        N400   1.439       .  S
C394        C395   1.400       .  A
C394        H399   1.085       .  S
C395        C396   1.411       .  A
C396        N397   1.438       .  S
N397        H401   1.046       .  S
N397        H402   1.044       .  S
N400        H403   1.045       .  S
N400        H404   1.046       .  S
C405        C406   1.401       .  A
C405        C410   1.397       .  A
C405        H412   1.084       .  S
C406        C407   1.404       .  A
C407        C408   1.392       .  A
C407        N414   1.434       .  S
C408        C409   1.409       .  A
C408        H413   1.083       .  S
C409        C410   1.420       .  A
C410        N411   1.432       .  S
N411        H415   1.045       .  S
N411        H416   1.045       .  S
N414        H417   1.044       .  S
N414        H418   1.046       .  S
C419        C420   1.410       .  A
C419        C424   1.407       .  A
C419        H426   1.083       .  S
C420        C421   1.419       .  A
C421        C422   1.406       .  A
C421        N428   1.439       .  S
C422        C423   1.403       .  A
C422        H427   1.085       .  S
C423        C424   1.414       .  A
C424        N425   1.437       .  S
N425        H429   1.046       .  S
N425        H430   1.044       .  S
N428        H431   1.046       .  S
N428        H432   1.046       .  S
C433        C434   1.408       .  A
C433        C438   1.395       .  A
C433        H440   1.083       .  S
C434        C435   1.419       .  A
C435        C436   1.406       .  A
C435        N442   1.437       .  S
C436        C437   1.400       .  A
C436        H441   1.084       .  S
C437        C438   1.403       .  A
C438        N439   1.433       .  S
N439        H443   1.045       .  S
N439        H444   1.045       .  S
N442        H445   1.045       .  S
N442        H446   1.046       .  S
C447        C448   1.404       .  A
C447        C452   1.408       .  A
C447        H454   1.084       .  S
C448        C449   1.407       .  A
C449        C450   1.411       .  A
C449        N456   1.437       .  S
C450        C451   1.412       .  A
C450        H455   1.083       .  S
C451        C452   1.422       .  A
C452        N453   1.439       .  S
N453        H457   1.046       .  S
N453        H458   1.044       .  S
N456        H459   1.045       .  S
N456        H460   1.046       .  S
C461        C462   1.406       .  A
C461        C466   1.407       .  A
C461        H468   1.084       .  S
C462        C463   1.407       .  A
C463        C464   1.406       .  A
C463        N470   1.437       .  S
C464        C465   1.410       .  A
C464        H469   1.083       .  S
C465        C466   1.414       .  A
C466        N467   1.438       .  S
N467        H471   1.046       .  S
N467        H472   1.045       .  S
N470        H473   1.045       .  S
N470        H474   1.046       .  S
C475        C476   1.418       .  A
C475        C480   1.400       .  A
C475        H482   1.083       .  S
C476        C477   1.415       .  A
C477        C478   1.420       .  A
C477        N484   1.436       .  S
C478        C479   1.414       .  A
C478        H483   1.084       .  S
C479        C480   1.399       .  A
C480        N481   1.433       .  S
N481        H485   1.045   1_655  S
N481        H486   1.046       .  S
N484        H487   1.045       .  S
N484        H488   1.046       .  S
C489        C490   1.397       .  A
C489        C494   1.403       .  A
C489        H496   1.084       .  S
C490        C491   1.414       .  A
C491        C492   1.396       .  A
C491        N498   1.434       .  S
C492        C493   1.401       .  A
C492        H497   1.084       .  S
C493        C494   1.416       .  A
C494        N495   1.437       .  S
N495        H499   1.046       .  S
N495        H500   1.046       .  S
N498        H501   1.045       .  S
N498        H502   1.045       .  S
C503        C504   1.414       .  A
C503        C508   1.400       .  A
C503        H510   1.083       .  S
C504        C505   1.417       .  A
C505        C506   1.422       .  A
C505        N512   1.436       .  S
C506        C507   1.412       .  A
C506        H511   1.083       .  S
C507        C508   1.402       .  A
C508        N509   1.434       .  S
N509        H513   1.044       .  S
N509        H514   1.045       .  S
N512        H515   1.045       .  S
N512        H516   1.046       .  S
C517        C518   1.407       .  A
C517        C522   1.417       .  A
C517        H524   1.083       .  S
C518        C519   1.426       .  A
C519        C520   1.399       .  A
C519        N526   1.433       .  S
C520        C521   1.396       .  A
C520        H525   1.085       .  S
C521        C522   1.422       .  A
C522        N523   1.436       .  S
N523        H527   1.045       .  S
N523        H528   1.045       .  S
N526        H529   1.041       .  S
N526        H530   1.044       .  S
C531        C532   1.398       .  A
C531        C536   1.394       .  A
C531        H538   1.084       .  S
C532        C533   1.407       .  A
C533        C534   1.408       .  A
C533        N540   1.437       .  S
C534        C535   1.408       .  A
C534        H539   1.083       .  S
C535        C536   1.410       .  A
C536        N537   1.430       .  S
N537        H541   1.046       .  S
N537        H542   1.045       .  S
N540        H543   1.045       .  S
N540        H544   1.046       .  S
C545        C546   1.407       .  A
C545        C550   1.422       .  A
C545        H552   1.083       .  S
C546        C547   1.429       .  A
C547        C548   1.399       .  A
C547        N554   1.430       .  S
C548        C549   1.390       .  A
C548        H553   1.085       .  S
C549        C550   1.422       .  A
C550        N551   1.437       .  S
N551        H555   1.045       .  S
N551        H556   1.045       .  S
N554        H557   1.045   1_455  S
N554        H558   1.045       .  S
C559        C560   1.403       .  A
C559        C564   1.397       .  A
C559        H566   1.084       .  S
C560        C561   1.419       .  A
C561        C562   1.407       .  A
C561        N568   1.437       .  S
C562        C563   1.398       .  A
C562        H567   1.084       .  S
C563        C564   1.413       .  A
C564        N565   1.434       .  S
N565        H569   1.044       .  S
N565        H570   1.045       .  S
N568        H571   1.045       .  S
N568        H572   1.045       .  S
C573        C574   1.398       .  A
C573        C578   1.401       .  A
C573        H580   1.085       .  S
C574        C575   1.420       .  A
C575        C576   1.419       .  A
C575        N582   1.436       .  S
C576        C577   1.411       .  A
C576        H581   1.083       .  S
C577        C578   1.423       .  A
C578        N579   1.433       .  S
N579        H583   1.043       .  S
N579        H584   1.046       .  S
N582        H585   1.045       .  S
N582        H586   1.045       .  S
C587        C588   1.400       .  A
C587        C592   1.388       .  A
C587        H594   1.085       .  S
C588        C589   1.408       .  A
C589        C590   1.399       .  A
C589        N596   1.437       .  S
C590        C591   1.408       .  A
C590        H595   1.084       .  S
C591        C592   1.414       .  A
C592        N593   1.429       .  S
N593        H597   1.042       .  S
N593        H598   1.045       .  S
N596        H599   1.045       .  S
N596        H600   1.045       .  S
C601        C602   1.390       .  A
C601        C606   1.394       .  A
C601        H608   1.085       .  S
C602        C603   1.421       .  A
C603        C604   1.420       .  A
C603        N610   1.438       .  S
C604        C605   1.407       .  A
C604        H609   1.083       .  S
C605        C606   1.436       .  A
C606        N607   1.428       .  S
N607        H611   1.043       .  S
N607        H612   1.043       .  S
N610        H613   1.045       .  S
N610        H614   1.045       .  S
C615        C616   1.403       .  A
C615        C620   1.405       .  A
C615        H622   1.084       .  S
C616        C617   1.418       .  A
C617        C618   1.406       .  A
C617        N624   1.432       .  S
C618        C619   1.398       .  A
C618        H623   1.084       .  S
C619        C620   1.417       .  A
C620        N621   1.440       .  S
N621        H625   1.046       .  S
N621        H626   1.044       .  S
N624        H627   1.046       .  S
N624        H628   1.045       .  S
C629        C630   1.402       .  A
C629        C634   1.392       .  A
C629        H636   1.084       .  S
C630        C631   1.412       .  A
C631        C632   1.400       .  A
C631        N638   1.432       .  S
C632        C633   1.396       .  A
C632        H637   1.084       .  S
C633        C634   1.413       .  A
C634        N635   1.434       .  S
N635        H639   1.044       .  S
N635        H640   1.045       .  S
N638        H641   1.045       .  S
N638        H642   1.045       .  S
C643        C644   1.415       .  A
C643        C648   1.402       .  A
C643        H650   1.083       .  S
C644        C645   1.415       .  A
C645        C646   1.411       .  A
C645        N652   1.431       .  S
C646        C647   1.412       .  A
C646        H651   1.084       .  S
C647        C648   1.406       .  A
C648        N649   1.440       .  S
N649        H653   1.046       .  S
N649        H654   1.045       .  S
N652        H655   1.045       .  S
N652        H656   1.046       .  S
C657        C658   1.411       .  A
C657        C662   1.407       .  A
C657        H664   1.083       .  S
C658        C659   1.408       .  A
C659        C660   1.398       .  A
C659        N666   1.433       .  S
C660        C661   1.408       .  A
C660        H665   1.085       .  S
C661        C662   1.404       .  A
C662        N663   1.437       .  S
N663        H667   1.046       .  S
N663        H668   1.045       .  S
N666        H669   1.044       .  S
N666        H670   1.046       .  S
C671        C672   1.396       .  A
C671        C676   1.404       .  A
C671        H678   1.085       .  S
C672        C673   1.419       .  A
C673        C674   1.414       .  A
C673        N680   1.432       .  S
C674        C675   1.404       .  A
C674        H679   1.083       .  S
C675        C676   1.430       .  A
C676        N677   1.435       .  S
N677        H681   1.046       .  S
N677        H682   1.045       .  S
N680        H683   1.046       .  S
N680        H684   1.045       .  S
O685       Zr697   2.439       .  S
O685        C687   1.286       .  A
O686       Zr723   2.418       .  S
O686        C687   1.282       .  A
C687       C1342   1.484       .  S
O688       Zr700   2.514       .  S
O688        C690   1.293       .  A
O689       Zr724   2.385       .  S
O689        C690   1.268       .  A
C690       C1261   1.506       .  S
O691       Zr700   2.529       .  S
O691        C693   1.304       .  A
O692       Zr723   2.361       .  S
O692        C693   1.274       .  A
C693       C1359   1.506       .  S
O694       Zr697   2.454       .  S
O694        C696   1.289       .  A
O695       Zr724   2.409       .  S
O695        C696   1.283       .  A
C696       C1275   1.479       .  S
Zr697       O698   2.438       .  S
Zr697       O699   2.435       .  S
Zr697       O703   2.273       .  S
Zr697       O704   2.356       .  S
Zr697       O727   2.382       .  S
Zr697       O729   2.384       .  S
O698        H741   0.991       .  S
O699        H740   0.990       .  S
O699        H744   0.990       .  S
Zr700       O701   2.436       .  S
Zr700       O702   2.435       .  S
Zr700       O703   2.277       .  S
Zr700       O704   2.389       .  S
Zr700       O728   2.392       .  S
Zr700       O730   2.407       .  S
O701        H742   0.990       .  S
O701        H745   0.990       .  S
O702        H735   0.990       .  S
O703       Zr723   2.242       .  S
O704       Zr724   2.392       .  S
O704        H731   0.967       .  S
O705       Zr717   2.564       .  S
O705        C707   1.310       .  A
O706       Zr724   2.366       .  S
O706        C707   1.274       .  A
C707       C1289   1.519       .  S
O708       Zr720   2.433       .  S
O708        C710   1.285       .  A
O709       Zr723   2.397       .  S
O709        C710   1.280       .  A
C710       C1314   1.473       .  S
O711       Zr720   2.480       .  S
O711        C713   1.294       .  A
O712       Zr724   2.411       .  S
O712        C713   1.284       .  A
C713       C1300   1.487       .  S
O714       Zr717   2.521       .  S
O714        C716   1.298       .  A
O715       Zr723   2.378       .  S
O715        C716   1.271       .  A
C716       C1328   1.508       .  S
Zr717       O718   2.438       .  S
Zr717       O719   2.434       .  S
Zr717       O726   2.294       .  S
Zr717       O725   2.339       .  S
Zr717       O729   2.403       .  S
Zr717       O727   2.398       .  S
O718        H738   0.990       .  S
O718        H743   0.991       .  S
O719        H739   0.990       .  S
Zr720       O721   2.437       .  S
Zr720       O722   2.433       .  S
Zr720       O726   2.286       .  S
Zr720       O725   2.361       .  S
Zr720       O730   2.370       .  S
Zr720       O728   2.388       .  S
O721        H737   0.990       .  S
O722        H736   0.990       .  S
O722        H746   0.991       .  S
Zr723       O726   2.265       .  S
Zr723       O728   2.390       .  S
Zr723       O729   2.390       .  S
Zr724       O725   2.383       .  S
Zr724       O727   2.389       .  S
Zr724       O730   2.390       .  S
O725        H733   0.961       .  S
O728        H732   0.964       .  S
O729        H734   0.968       .  S
O747       Zr759   2.532       .  S
O747        C749   1.304       .  A
O748       Zr785   2.359   1_455  S
O748        C749   1.273       .  A
C749       C1230   1.512       .  S
O750       Zr762   2.458       .  S
O750        C752   1.288       .  A
O751       Zr786   2.413   1_655  S
O751        C752   1.283       .  A
C752       C1177   1.474       .  S
O753       Zr762   2.443       .  S
O753        C755   1.286       .  A
O754       Zr785   2.406       .  S
O754        C755   1.281       .  A
C755       C1244   1.484       .  S
O756       Zr759   2.520       .  S
O756        C758   1.296       .  A
O757       Zr786   2.390       .  S
O757        C758   1.273       .  A
C758       C1188   1.509       .  S
Zr759       O760   2.436       .  S
Zr759       O761   2.435       .  S
Zr759       O765   2.282   1_455  S
Zr759       O766   2.390   1_455  S
Zr759       O789   2.406       .  S
Zr759       O791   2.396       .  S
O760        H803   0.990       .  S
O761        H802   0.990       .  S
O761        H806   0.990       .  S
Zr762       O763   2.442       .  S
Zr762       O764   2.436       .  S
Zr762       O765   2.278       .  S
Zr762       O766   2.361       .  S
Zr762       O790   2.374       .  S
Zr762       O792   2.379       .  S
O763        H804   0.990       .  S
O763        H807   0.991       .  S
O764        H797   0.991       .  S
O765       Zr785   2.246       .  S
O766       Zr786   2.395   1_655  S
O766        H793   0.935       .  S
O767       Zr779   2.473       .  S
O767        C769   1.293       .  A
O768       Zr786   2.419       .  S
O768        C769   1.285       .  A
C769       C1149   1.488       .  S
O770       Zr782   2.520       .  S
O770        C772   1.297       .  A
O771       Zr785   2.377       .  S
O771        C772   1.266       .  A
C772       C1202   1.509       .  S
O773       Zr782   2.549       .  S
O773        C775   1.307       .  A
O774       Zr786   2.356   1_655  S
O774        C775   1.276       .  A
C775       C1160   1.510       .  S
O776       Zr779   2.447       .  S
O776        C778   1.288       .  A
O777       Zr785   2.402   1_455  S
O777        C778   1.281       .  A
C778       C1219   1.479       .  S
Zr779       O780   2.440       .  S
Zr779       O781   2.434       .  S
Zr779       O788   2.281   1_455  S
Zr779       O787   2.366       .  S
Zr779       O791   2.385       .  S
Zr779       O789   2.380       .  S
O780        H800   0.990       .  S
O780        H805   0.991       .  S
O781        H801   0.990       .  S
Zr782       O783   2.435       .  S
Zr782       O784   2.434       .  S
Zr782       O788   2.292       .  S
Zr782       O787   2.344   1_655  S
Zr782       O792   2.398       .  S
Zr782       O790   2.397       .  S
O783        H799   0.990       .  S
O784        H798   0.990       .  S
O784        H808   0.990       .  S
Zr785       O788   2.257       .  S
Zr785       O790   2.387       .  S
Zr785       O791   2.387   1_655  S
Zr786       O787   2.388       .  S
Zr786       O789   2.389       .  S
Zr786       O792   2.391   1_455  S
O787        H795   0.961       .  S
O790        H794   0.966       .  S
O791        H796   0.964       .  S
O809       Zr821   2.454       .  S
O809        C811   1.289       .  A
O810       Zr847   2.391   1_565  S
O810        C811   1.279       .  A
C811       C1118   1.487       .  S
O812       Zr824   2.464       .  S
O812        C814   1.290       .  A
O813       Zr848   2.439       .  S
O813        C814   1.291       .  A
C814       C1062   1.502       .  S
O815       Zr824   2.458       .  S
O815        C817   1.290       .  A
O816       Zr847   2.423       .  S
O816        C817   1.285       .  A
C817       C1135   1.502       .  S
O818       Zr821   2.480       .  S
O818        C820   1.294       .  A
O819       Zr848   2.387   1_565  S
O819        C820   1.280       .  A
C820       C1076   1.484       .  S
Zr821       O822   2.438       .  S
Zr821       O823   2.437       .  S
Zr821       O827   2.283       .  S
Zr821       O828   2.362       .  S
Zr821       O851   2.380       .  S
Zr821       O853   2.382       .  S
O822        H865   0.990       .  S
O823        H864   0.990       .  S
O823        H868   0.990       .  S
Zr824       O825   2.437       .  S
Zr824       O826   2.433       .  S
Zr824       O827   2.275   1_545  S
Zr824       O828   2.369   1_545  S
Zr824       O852   2.381       .  S
Zr824       O854   2.389       .  S
O825        H866   0.990       .  S
O825        H869   0.990       .  S
O826        H859   0.990       .  S
O827       Zr847   2.251   1_565  S
O828       Zr848   2.391   1_565  S
O828        H855   0.964       .  S
O829       Zr841   2.482       .  S
O829        C831   1.295       .  A
O830       Zr848   2.433   1_565  S
O830        C831   1.288       .  A
C831       C1037   1.505       .  S
O832       Zr844   2.454       .  S
O832        C834   1.287       .  A
O833       Zr847   2.386       .  S
O833        C834   1.276       .  A
C834       C1093   1.488       .  S
O835       Zr844   2.483       .  S
O835        C837   1.295       .  A
O836       Zr848   2.403       .  S
O836        C837   1.282       .  A
C837       C1051   1.487       .  S
O838       Zr841   2.464       .  S
O838        C840   1.292       .  A
O839       Zr847   2.412   1_565  S
O839        C840   1.283       .  A
C840       C1104   1.500       .  S
Zr841       O842   2.440       .  S
Zr841       O843   2.434       .  S
Zr841       O850   2.282   1_565  S
Zr841       O849   2.354   1_565  S
Zr841       O853   2.384       .  S
Zr841       O851   2.388       .  S
O842        H862   0.990       .  S
O842        H867   0.991       .  S
O843        H863   0.990       .  S
Zr844       O845   2.438       .  S
Zr844       O846   2.434       .  S
Zr844       O850   2.288       .  S
Zr844       O849   2.366       .  S
Zr844       O854   2.383       .  S
Zr844       O852   2.395       .  S
O845        H861   0.990       .  S
O846        H860   0.991       .  S
O846        H870   0.990       .  S
Zr847       O850   2.261       .  S
Zr847       O852   2.393       .  S
Zr847       O853   2.392   1_545  S
Zr848       O849   2.388       .  S
Zr848       O851   2.396   1_545  S
Zr848       O854   2.393       .  S
O849        H857   0.963       .  S
O852        H856   0.965       .  S
O853        H858   0.965       .  S
C871        C955   1.500       .  S
C871        C872   1.436       .  A
C871        C876   1.433       .  A
C872        C873   1.422       .  A
C872        H877   1.083       .  S
C873       C1356   1.488       .  S
C873        C874   1.379       .  A
C874        C875   1.377       .  A
C874        H878   1.089       .  S
C875       C1233   1.483       .  S
C875        C876   1.418       .  A
C876        H879   1.084   1_455  S
C880        C954   1.461       .  S
C880        C881   1.399       .  A
C880        C885   1.406       .  A
C881        C882   1.396       .  A
C881        H886   1.080       .  S
C882       C1317   1.463       .  S
C882        C883   1.393       .  A
C883        C884   1.395       .  A
C883        H887   1.086       .  S
C884       C1216   1.470       .  S
C884        C885   1.403       .  A
C885        H888   1.079       .  S
C889        C991   1.505       .  S
C889        C890   1.428       .  A
C889        C894   1.417       .  A
C890        C891   1.402       .  A
C890        H895   1.083       .  S
C891       C1107   1.483       .  S
C891        C892   1.380       .  A
C892        C893   1.392       .  A
C892        H896   1.088       .  S
C893       C1146   1.472       .  S
C893        C894   1.418       .  A
C894        H897   1.082       .  S
C898        C989   1.494       .  S
C898        C899   1.421       .  A
C898        C903   1.410       .  A
C899        C900   1.420       .  A
C899        H904   1.078       .  S
C900       C1205   1.489       .  S
C900        C901   1.392       .  A
C901        C902   1.390       .  A
C901        H905   1.087       .  S
C902       C1048   1.474       .  S
C902        C903   1.405       .  A
C903        H906   1.082       .  S
C907        C957   1.499       .  S
C907        C908   1.416       .  A
C907        C912   1.429       .  A
C908        C909   1.413       .  A
C908        H913   1.081       .  S
C909       C1247   1.467       .  S
C909        C910   1.386       .  A
C910        C911   1.378       .  A
C910        H914   1.088       .  S
C911       C1065   1.479       .  S
C911        C912   1.399       .  A
C912        H915   1.083       .  S
C916        C956   1.501       .  S
C916        C917   1.413       .  A
C916        C921   1.429       .  A
C917        C918   1.413       .  A
C917        H922   1.080       .  S
C918       C1345   1.471       .  S
C918        C919   1.392       .  A
C919        C920   1.382       .  A
C919        H923   1.088       .  S
C920       C1132   1.484       .  S
C920        C921   1.404       .  A
C921        H924   1.083       .  S
C925        C987   1.486       .  S
C925        C926   1.407       .  A
C925        C930   1.421       .  A
C926        C927   1.399       .  A
C926        H931   1.084       .  S
C927       C1121   1.467       .  S
C927        C928   1.389       .  A
C928        C929   1.391       .  A
C928        H932   1.087       .  S
C929       C1191   1.487       .  S
C929        C930   1.418       .  A
C930        H933   1.077       .  S
C934        C990   1.484       .  S
C934        C935   1.406       .  A
C934        C939   1.419       .  A
C935        C936   1.398       .  A
C935        H940   1.084       .  S
C936       C1090   1.468       .  S
C936        C937   1.391       .  A
C937        C938   1.392       .  A
C937        H941   1.087       .  S
C938       C1331   1.489       .  S
C938        C939   1.420       .  A
C939        H942   1.078       .  S
O943       Zr979   2.460       .  S
O943        C954   1.298       .  A
O944       Zr978   2.617   1_445  S
O944        C955   1.329       .  A
O945       Zr951   2.529       .  S
O945        C956   1.307       .  A
O946       Zr951   2.518   1_655  S
O946        C957   1.305       .  A
O947        C957   1.280       .  A
O948        C956   1.283       .  A
O949       Zr951   2.314       .  S
O949        C955   1.269       .  A
O950        C954   1.289       .  A
Zr951       O952   2.351   1_455  S
Zr951       O959   2.346       .  S
O952       Zr978   2.344   1_545  S
O953       Zr979   2.373       .  S
O953       Zr980   2.329   1_545  S
H958        O959   0.965       .  S
O959       Zr978   2.336   1_445  S
H960        O961   0.965       .  S
O961       Zr979   2.375   1_655  S
O961       Zr981   2.327   1_545  S
O962       Zr978   2.466       .  S
O962        C985   1.299       .  A
O963       Zr979   2.607   1_665  S
O963        C986   1.327       .  A
O964        C987   1.292       .  A
O965        C988   1.292       .  A
O966       Zr981   2.450   1_545  S
O966        C989   1.294       .  A
O967       Zr980   2.418   1_545  S
O967        C990   1.289       .  A
O968       Zr982   2.535   1_455  S
O968        C991   1.308       .  A
O969       Zr982   2.545       .  S
O969        C992   1.309       .  A
O970       Zr980   2.388       .  S
O970        C991   1.283       .  A
O971       Zr981   2.376       .  S
O971        C992   1.280       .  A
O972       Zr978   2.479   1_455  S
O972        C987   1.299       .  A
O973       Zr979   2.492       .  S
O973        C990   1.302       .  A
O974       Zr979   2.495   1_655  S
O974        C989   1.302       .  A
O975       Zr978   2.491       .  S
O975        C988   1.301       .  A
O976        C985   1.286       .  A
O977       Zr982   2.311       .  S
O977        C986   1.269       .  A
Zr978       O984   2.376   1_655  S
Zr978       O996   2.380       .  S
Zr979       O983   2.339   1_445  S
Zr979       O994   2.345   1_545  S
Zr980       O994   2.340       .  S
Zr981       O983   2.329       .  S
Zr982       O983   2.339       .  S
Zr982       O994   2.347   1_655  S
C985       C1024   1.452       .  S
C986       C1015   1.496       .  S
C988       C1006   1.489       .  S
C992        C997   1.509       .  S
H993        O994   0.967       .  S
H995        O996   0.965       .  S
C997        C998   1.419       .  A
C997       C1002   1.432       .  A
C998        C999   1.420       .  A
C998       H1003   1.082       .  S
C999       C1303   1.475       .  S
C999       C1000   1.389       .  A
C1000      C1001   1.379       .  A
C1000      H1004   1.088       .  S
C1001      C1034   1.484       .  S
C1001      C1002   1.402       .  A
C1002      H1005   1.082       .  S
C1006      C1007   1.423       .  A
C1006      C1011   1.407       .  A
C1007      C1008   1.422       .  A
C1007      H1012   1.083       .  S
C1008      C1258   1.486       .  S
C1008      C1009   1.394       .  A
C1009      C1010   1.388       .  A
C1009      H1013   1.087       .  S
C1010      C1079   1.472       .  S
C1010      C1011   1.400       .  A
C1011      H1014   1.081       .  S
C1015      C1016   1.432       .  A
C1015      C1020   1.433       .  A
C1016      C1017   1.418       .  A
C1016      H1021   1.084   1_655  S
C1017      C1163   1.484       .  S
C1017      C1018   1.380       .  A
C1018      C1019   1.380       .  A
C1018      H1022   1.088       .  S
C1019      C1286   1.489       .  S
C1019      C1020   1.421       .  A
C1020      H1023   1.083       .  S
C1024      C1025   1.399       .  A
C1024      C1029   1.399       .  A
C1025      C1026   1.398       .  A
C1025      H1030   1.085       .  S
C1026      C1272   1.464       .  S
C1026      C1027   1.398       .  A
C1027      C1028   1.395       .  A
C1027      H1031   1.086       .  S
C1028      C1174   1.468       .  S
C1028      C1029   1.397       .  A
C1029      H1032   1.079       .  S
C1033      C1034   1.403       .  A
C1033      C1038   1.409       .  A
C1033      H1040   1.084       .  S
C1034      C1035   1.413       .  A
C1035      C1036   1.407       .  A
C1035      N1042   1.437       .  S
C1036      C1037   1.411       .  A
C1036      H1041   1.083       .  S
C1037      C1038   1.421       .  A
C1038      N1039   1.438       .  S
N1039      H1043   1.046       .  S
N1039      H1044   1.046       .  S
N1042      H1045   1.045       .  S
N1042      H1046   1.045       .  S
C1047      C1048   1.404       .  A
C1047      C1052   1.401       .  A
C1047      H1054   1.085       .  S
C1048      C1049   1.413       .  A
C1049      C1050   1.404       .  A
C1049      N1056   1.438       .  S
C1050      C1051   1.409       .  A
C1050      H1055   1.084       .  S
C1051      C1052   1.412       .  A
C1052      N1053   1.433       .  S
N1053      H1057   1.045       .  S
N1053      H1058   1.045       .  S
N1056      H1059   1.044       .  S
N1056      H1060   1.046       .  S
C1061      C1062   1.408       .  A
C1061      C1066   1.400       .  A
C1061      H1068   1.083       .  S
C1062      C1063   1.423       .  A
C1063      C1064   1.402       .  A
C1063      N1070   1.430       .  S
C1064      C1065   1.404       .  A
C1064      H1069   1.085       .  S
C1065      C1066   1.416       .  A
C1066      N1067   1.438       .  S
N1067      H1071   1.045       .  S
N1067      H1072   1.041       .  S
N1070      H1073   1.043       .  S
N1070      H1074   1.045       .  S
C1075      C1076   1.408       .  A
C1075      C1080   1.403       .  A
C1075      H1082   1.084       .  S
C1076      C1077   1.416       .  A
C1077      C1078   1.400       .  A
C1077      N1084   1.439       .  S
C1078      C1079   1.402       .  A
C1078      H1083   1.085       .  S
C1079      C1080   1.413       .  A
C1080      N1081   1.438       .  S
N1081      H1085   1.046       .  S
N1081      H1086   1.044       .  S
N1084      H1087   1.045       .  S
N1084      H1088   1.046       .  S
C1089      C1090   1.401       .  A
C1089      C1094   1.399       .  A
C1089      H1096   1.084       .  S
C1090      C1091   1.404       .  A
C1091      C1092   1.394       .  A
C1091      N1098   1.434       .  S
C1092      C1093   1.410       .  A
C1092      H1097   1.083       .  S
C1093      C1094   1.421       .  A
C1094      N1095   1.431       .  S
N1095      H1099   1.045       .  S
N1095      H1100   1.045       .  S
N1098      H1101   1.044       .  S
N1098      H1102   1.045       .  S
C1103      C1104   1.409       .  A
C1103      C1108   1.406       .  A
C1103      H1110   1.083       .  S
C1104      C1105   1.421       .  A
C1105      C1106   1.407       .  A
C1105      N1112   1.439       .  S
C1106      C1107   1.403       .  A
C1106      H1111   1.085       .  S
C1107      C1108   1.414       .  A
C1108      N1109   1.438       .  S
N1109      H1113   1.045       .  S
N1109      H1114   1.044       .  S
N1112      H1115   1.046       .  S
N1112      H1116   1.046       .  S
C1117      C1118   1.409       .  A
C1117      C1122   1.400       .  A
C1117      H1124   1.083       .  S
C1118      C1119   1.418       .  A
C1119      C1120   1.404       .  A
C1119      N1126   1.437       .  S
C1120      C1121   1.399       .  A
C1120      H1125   1.084       .  S
C1121      C1122   1.407       .  A
C1122      N1123   1.440       .  S
N1123      H1127   1.045       .  S
N1123      H1128   1.045       .  S
N1126      H1129   1.045       .  S
N1126      H1130   1.046       .  S
C1131      C1132   1.404       .  A
C1131      C1136   1.405       .  A
C1131      H1138   1.085       .  S
C1132      C1133   1.409       .  A
C1133      C1134   1.411       .  A
C1133      N1140   1.437       .  S
C1134      C1135   1.412       .  A
C1134      H1139   1.083       .  S
C1135      C1136   1.417       .  A
C1136      N1137   1.433       .  S
N1137      H1141   1.045       .  S
N1137      H1142   1.045       .  S
N1140      H1143   1.045       .  S
N1140      H1144   1.046       .  S
C1145      C1146   1.406       .  A
C1145      C1150   1.406       .  A
C1145      H1152   1.084       .  S
C1146      C1147   1.405       .  A
C1147      C1148   1.406       .  A
C1147      N1154   1.437       .  S
C1148      C1149   1.411       .  A
C1148      H1153   1.083       .  S
C1149      C1150   1.413       .  A
C1150      N1151   1.438       .  S
N1151      H1155   1.046       .  S
N1151      H1156   1.045       .  S
N1154      H1157   1.045       .  S
N1154      H1158   1.046       .  S
C1159      C1160   1.418       .  A
C1159      C1164   1.399       .  A
C1159      H1166   1.083       .  S
C1160      C1161   1.415       .  A
C1161      C1162   1.421       .  A
C1161      N1168   1.436       .  S
C1162      C1163   1.415       .  A
C1162      H1167   1.083       .  S
C1163      C1164   1.399       .  A
C1164      N1165   1.433       .  S
N1165      H1169   1.045   1_655  S
N1165      H1170   1.046       .  S
N1168      H1171   1.045       .  S
N1168      H1172   1.045       .  S
C1173      C1174   1.398       .  A
C1173      C1178   1.404       .  A
C1173      H1180   1.084       .  S
C1174      C1175   1.414       .  A
C1175      C1176   1.394       .  A
C1175      N1182   1.433       .  S
C1176      C1177   1.400       .  A
C1176      H1181   1.084       .  S
C1177      C1178   1.416       .  A
C1178      N1179   1.438       .  S
N1179      H1183   1.046       .  S
N1179      H1184   1.045       .  S
N1182      H1185   1.045       .  S
N1182      H1186   1.046       .  S
C1187      C1188   1.414       .  A
C1187      C1192   1.400       .  A
C1187      H1194   1.083       .  S
C1188      C1189   1.416       .  A
C1189      C1190   1.421       .  A
C1189      N1196   1.436       .  S
C1190      C1191   1.411       .  A
C1190      H1195   1.083       .  S
C1191      C1192   1.403       .  A
C1192      N1193   1.434       .  S
N1193      H1197   1.045       .  S
N1193      H1198   1.046       .  S
N1196      H1199   1.045       .  S
N1196      H1200   1.046       .  S
C1201      C1202   1.407       .  A
C1201      C1206   1.417       .  A
C1201      H1208   1.083       .  S
C1202      C1203   1.426       .  A
C1203      C1204   1.399       .  A
C1203      N1210   1.433       .  S
C1204      C1205   1.396       .  A
C1204      H1209   1.085       .  S
C1205      C1206   1.422       .  A
C1206      N1207   1.436       .  S
N1207      H1211   1.046       .  S
N1207      H1212   1.045       .  S
N1210      H1213   1.041       .  S
N1210      H1214   1.045       .  S
C1215      C1216   1.399       .  A
C1215      C1220   1.395       .  A
C1215      H1222   1.083       .  S
C1216      C1217   1.407       .  A
C1217      C1218   1.408       .  A
C1217      N1224   1.437       .  S
C1218      C1219   1.407       .  A
C1218      H1223   1.083       .  S
C1219      C1220   1.409       .  A
C1220      N1221   1.431       .  S
N1221      H1225   1.046       .  S
N1221      H1226   1.045       .  S
N1224      H1227   1.045       .  S
N1224      H1228   1.046       .  S
C1229      C1230   1.406       .  A
C1229      C1234   1.421       .  A
C1229      H1236   1.083       .  S
C1230      C1231   1.429       .  A
C1231      C1232   1.397       .  A
C1231      N1238   1.430       .  S
C1232      C1233   1.389       .  A
C1232      H1237   1.085       .  S
C1233      C1234   1.421       .  A
C1234      N1235   1.437       .  S
N1235      H1239   1.045       .  S
N1235      H1240   1.045       .  S
N1238      H1241   1.045   1_455  S
N1238      H1242   1.045       .  S
C1243      C1244   1.404       .  A
C1243      C1248   1.399       .  A
C1243      H1250   1.084       .  S
C1244      C1245   1.420       .  A
C1245      C1246   1.405       .  A
C1245      N1252   1.438       .  S
C1246      C1247   1.397       .  A
C1246      H1251   1.084       .  S
C1247      C1248   1.412       .  A
C1248      N1249   1.435       .  S
N1249      H1253   1.044       .  S
N1249      H1254   1.046       .  S
N1252      H1255   1.045       .  S
N1252      H1256   1.045       .  S
C1257      C1258   1.400       .  A
C1257      C1262   1.400       .  A
C1257      H1264   1.085       .  S
C1258      C1259   1.419       .  A
C1259      C1260   1.416       .  A
C1259      N1266   1.436       .  S
C1260      C1261   1.410       .  A
C1260      H1265   1.083       .  S
C1261      C1262   1.421       .  A
C1262      N1263   1.434       .  S
N1263      H1267   1.044       .  S
N1263      H1268   1.046       .  S
N1266      H1269   1.045       .  S
N1266      H1270   1.046       .  S
C1271      C1272   1.400       .  A
C1271      C1276   1.388       .  A
C1271      H1278   1.085       .  S
C1272      C1273   1.409       .  A
C1273      C1274   1.400       .  A
C1273      N1280   1.437       .  S
C1274      C1275   1.410       .  A
C1274      H1279   1.084       .  S
C1275      C1276   1.415       .  A
C1276      N1277   1.430       .  S
N1277      H1281   1.042       .  S
N1277      H1282   1.044       .  S
N1280      H1283   1.045       .  S
N1280      H1284   1.045       .  S
C1285      C1286   1.392       .  A
C1285      C1290   1.398       .  A
C1285      H1292   1.085       .  S
C1286      C1287   1.421       .  A
C1287      C1288   1.420       .  A
C1287      N1294   1.438       .  S
C1288      C1289   1.408       .  A
C1288      H1293   1.083       .  S
C1289      C1290   1.438       .  A
C1290      N1291   1.430       .  S
N1291      H1295   1.042       .  S
N1291      H1296   1.043       .  S
N1294      H1297   1.045       .  S
N1294      H1298   1.045       .  S
C1299      C1300   1.404       .  A
C1299      C1304   1.406       .  A
C1299      H1306   1.084       .  S
C1300      C1301   1.418       .  A
C1301      C1302   1.405       .  A
C1301      N1308   1.432       .  S
C1302      C1303   1.397       .  A
C1302      H1307   1.084       .  S
C1303      C1304   1.417       .  A
C1304      N1305   1.440       .  S
N1305      H1309   1.046       .  S
N1305      H1310   1.044       .  S
N1308      H1311   1.046       .  S
N1308      H1312   1.046       .  S
C1313      C1314   1.402       .  A
C1313      C1318   1.392       .  A
C1313      H1320   1.084       .  S
C1314      C1315   1.412       .  A
C1315      C1316   1.400       .  A
C1315      N1322   1.432       .  S
C1316      C1317   1.397       .  A
C1316      H1321   1.084       .  S
C1317      C1318   1.413       .  A
C1318      N1319   1.434       .  S
N1319      H1323   1.043       .  S
N1319      H1324   1.045       .  S
N1322      H1325   1.045       .  S
N1322      H1326   1.045       .  S
C1327      C1328   1.415       .  A
C1327      C1332   1.403       .  A
C1327      H1334   1.082       .  S
C1328      C1329   1.415       .  A
C1329      C1330   1.413       .  A
C1329      N1336   1.431       .  S
C1330      C1331   1.414       .  A
C1330      H1335   1.084       .  S
C1331      C1332   1.405       .  A
C1332      N1333   1.440       .  S
N1333      H1337   1.045       .  S
N1333      H1338   1.045       .  S
N1336      H1339   1.045       .  S
N1336      H1340   1.045       .  S
C1341      C1342   1.411       .  A
C1341      C1346   1.406       .  A
C1341      H1348   1.083       .  S
C1342      C1343   1.409       .  A
C1343      C1344   1.400       .  A
C1343      N1350   1.432       .  S
C1344      C1345   1.408       .  A
C1344      H1349   1.085       .  S
C1345      C1346   1.404       .  A
C1346      N1347   1.437       .  S
N1347      H1351   1.046       .  S
N1347      H1352   1.045       .  S
N1350      H1353   1.044       .  S
N1350      H1354   1.045       .  S
C1355      C1356   1.398       .  A
C1355      C1360   1.406       .  A
C1355      H1362   1.084       .  S
C1356      C1357   1.419       .  A
C1357      C1358   1.413       .  A
C1357      N1364   1.432       .  S
C1358      C1359   1.403       .  A
C1358      H1363   1.083       .  S
C1359      C1360   1.428       .  A
C1360      N1361   1.435       .  S
N1361      H1365   1.046       .  S
N1361      H1366   1.045       .  S
N1364      H1367   1.046       .  S
N1364      H1368   1.045       .  S
