geometry optimzed in LAMMPS
_audit_creation_date              2020-11-30 
_audit_creation_method            'lammps2cif' 
_symmetry_space_group_name_H-M    'P1' 
_symmetry_Int_Tables_number       1 
_symmetry_cell_setting            triclinic 
loop_ 
_symmetry_equiv_pos_as_xyz 
  x,y,z 
_cell_length_a                    52.25164672 
_cell_length_b                    51.10586049527169 
_cell_length_c                    40.574352173585424 
_cell_angle_alpha                 90.12763282469608 
_cell_angle_beta                  89.76771668681441 
_cell_angle_gamma                 89.97075947424449 
loop_ 
_atom_site_label 
_atom_site_type_symbol 
_atom_site_fract_x 
_atom_site_fract_y 
_atom_site_fract_z 
_atom_site_charge 
O1          O  0.25815652  0.20628538  0.40375631    -0.80000
O2          O  0.25478301  0.20411510  0.59304427    -0.81500
O3          O  0.29797302  0.17552834  0.50024599    -0.78500
O4          O  0.21429325  0.17606319  0.49456453    -0.76900
O5          O  0.18401836  0.20825938  0.49653090    -0.78700
O6          O  0.32897926  0.20675233  0.50209045    -0.79700
O7          O  0.25458423  0.17456383  0.55088968    -0.81000
O8          O  0.25911435  0.17558130  0.44471114    -0.81300
Eu9        Eu  0.25618654  0.19737148  0.49839230     2.39200
O10         O  0.23004222  0.22301392  0.53322245    -0.88800
O11         O  0.28247302  0.22363471  0.46527634    -0.92400
C12         C  0.25950128  0.18232056  0.41412310     1.02300
C13         C  0.25447941  0.18033223  0.58181343     1.02100
C14         C  0.32157416  0.18266133  0.50193287     1.02100
C15         C  0.19091876  0.18417363  0.49393537     0.99900
H16         H  0.29199965  0.21171011  0.54727507     0.29700
O17         O  0.28146246  0.22288478  0.53380945    -1.01200
H18         H  0.22018728  0.21345205  0.45108591     0.29700
O19         O  0.23081292  0.22422162  0.46499919    -1.03700
O20         O  0.25865913  0.29231328  0.59585738    -0.80900
O21         O  0.25659249  0.29430390  0.40555529    -0.80500
O22         O  0.32790764  0.25054213  0.55468537    -0.78900
O23         O  0.18258102  0.24940972  0.55292675    -0.82200
O24         O  0.18344079  0.25086946  0.44697682    -0.80100
O25         O  0.32962616  0.24922807  0.44784006    -0.78800
O26         O  0.29900845  0.32423728  0.49857129    -0.80300
O27         O  0.21623108  0.32504483  0.49952862    -0.82200
O28         O  0.32927411  0.29201308  0.49885785    -0.78900
O29         O  0.18516523  0.29378235  0.49902669    -0.81600
O30         O  0.29775942  0.24855503  0.59563769    -0.77300
O31         O  0.30075799  0.25005032  0.40568719    -0.77400
O32         O  0.21321386  0.25025485  0.40570032    -0.77000
O33         O  0.21209387  0.24950979  0.59451183    -0.80500
O34         O  0.25987584  0.32317705  0.55530519    -0.79900
O35         O  0.25756851  0.32498354  0.44694084    -0.78300
Eu36       Eu  0.25543023  0.24890768  0.56849552     2.39800
Eu37       Eu  0.25694860  0.25019635  0.43092248     2.39600
Eu38       Eu  0.30753992  0.24946192  0.50063728     2.38400
Eu39       Eu  0.20536778  0.25057952  0.49985378     2.39900
Eu40       Eu  0.25728201  0.30251130  0.50059938     2.39800
O41         O  0.23154985  0.27662578  0.46609472    -0.92700
O42         O  0.28183898  0.27549758  0.53484747    -0.91600
C43         C  0.26026314  0.31633142  0.58595875     1.02500
C44         C  0.25720567  0.31817863  0.41625824     1.01200
C45         C  0.32117668  0.24974831  0.58527968     1.00600
C46         C  0.18876635  0.24949110  0.58368825     1.02600
C47         C  0.18970345  0.25041713  0.41622420     1.01500
C48         C  0.32396015  0.24932836  0.41704242     1.00400
C49         C  0.32239049  0.31621789  0.49766830     1.00400
C50         C  0.19265340  0.31778124  0.49862449     1.03000
H51         H  0.29355409  0.28689205  0.45283494     0.30400
O52         O  0.28256356  0.27598008  0.46622135    -1.04800
H53         H  0.21995281  0.28776985  0.54817976     0.32500
O54         O  0.23064360  0.27666832  0.53462835    -1.07400
N55         N  0.46887376  0.99817209  0.49389825    -0.36400
N56         N  0.00922334  0.45978695  0.49335529    -0.57000
N57         N  0.04658543  0.00193829  0.48802425    -0.36400
N58         N  0.00613220  0.04025614  0.49155875    -0.57000
C59         C  0.45565428  0.47629966  0.50164444     0.27100
C60         C  0.45408798  0.01882969  0.50247588     0.27100
C61         C  0.06197315  0.48164995  0.49577817     0.27100
C62         C  0.06023267  0.02404906  0.49292516     0.27100
C63         C  0.48921504  0.44344779  0.48890457     0.35800
C64         C  0.03056786  0.44553910  0.48794000     0.35800
C65         C  0.48452334  0.05434913  0.48786584     0.35800
C66         C  0.02563819  0.05628685  0.48337635     0.35800
C67         C  0.43217335  0.48309982  0.51520442    -0.21700
C68         C  0.43119450  0.00997280  0.51575491    -0.21700
C69         C  0.08576761  0.49096356  0.50535496    -0.21700
C70         C  0.08468119  0.01776420  0.50345783    -0.21700
C71         C  0.49788068  0.41858964  0.48089272    -0.22800
C72         C  0.02415870  0.41988217  0.48048034    -0.22800
C73         C  0.49031960  0.07954748  0.47767716    -0.22800
C74         C  0.01644982  0.08073802  0.47468487    -0.22800
C75         C  0.46339024  0.45044354  0.49424438    -0.18100
C76         C  0.45982912  0.04530620  0.49588807    -0.18100
C77         C  0.05167155  0.04965991  0.48621355    -0.18100
C78         C  0.05572058  0.45493174  0.49230413    -0.18100
H79         H  0.41715756  0.47002200  0.52338086     0.14800
H80         H  0.41522279  0.02166027  0.52435288     0.14800
H81         H  0.10232162  0.47962407  0.51256037     0.14800
H82         H  0.10018532  0.03108844  0.50900138     0.14800
H83         H  0.48651532  0.40124816  0.47645901     0.13100
H84         H  0.03707264  0.40374192  0.47564854     0.13100
H85         H  0.47713514  0.09547284  0.47317736     0.13100
H86         H  0.02743799  0.09774958  0.46747040     0.13100
H87         H  0.48535038  0.99892674  0.47951737     0.26300
H88         H  0.02895260  0.00066896  0.47640260     0.26300
O89         O  0.48760693  0.45532418  0.90458236    -0.80000
O90         O  0.48890142  0.45194776  0.09399822    -0.81500
O91         O  0.03296616  0.42511749  0.99721505    -0.78500
O92         O  0.44937035  0.42240504  0.99825392    -0.76900
O93         O  0.41760688  0.45299404  0.00005097    -0.78700
O94         O  0.06283846  0.45754122  0.99710679    -0.79700
O95         O  0.48850240  0.42204179  0.05186208    -0.81000
O96         O  0.49054851  0.42388023  0.94465883    -0.81300
Eu97       Eu  0.49046814  0.44516174  0.99896984     2.39200
O98         O  0.46446445  0.46999989  0.03441589    -0.88800
O99         O  0.01488828  0.47292235  0.96533510    -0.92400
C100        C  0.48891976  0.43122065  0.91433027     1.02300
C101        C  0.48779551  0.42824505  0.08269199     1.02100
C102        C  0.05627685  0.43324844  0.99631642     1.02100
C103        C  0.42564701  0.42917713  0.99867620     0.99900
H104        H  0.02718902  0.46026860  0.04651610     0.29700
O105        O  0.01604446  0.47125646  0.03361482    -1.01200
H106        H  0.45299838  0.46023483  0.95257502     0.29700
O107        O  0.46365752  0.47121767  0.96618810    -1.03700
O108        O  0.48979485  0.03956878  0.09727411    -0.80900
O109        O  0.48810227  0.04385023  0.90793357    -0.80500
O110        O  0.06272319  0.49942693  0.05246348    -0.78900
O111        O  0.41700808  0.49411861  0.05641765    -0.82200
O112        O  0.41634092  0.49703737  0.94802886    -0.80100
O113        O  0.06120709  0.49723212  0.94527052    -0.78800
O114        O  0.02790079  0.07349611  0.00248532    -0.80300
O115        O  0.44450179  0.07022934  0.00347838    -0.82200
O116        O  0.05973987  0.04293588  0.99978121    -0.78900
O117        O  0.41487811  0.03752132  0.00191374    -0.81600
O118        O  0.03313098  0.49789051  0.09431985    -0.77300
O119        O  0.03085591  0.99770400  0.90465170    -0.77400
O120        O  0.44548274  0.99961739  0.90598099    -0.77000
O121        O  0.44739781  0.49535522  0.09688087    -0.80500
O122        O  0.48866274  0.07105271  0.05711140    -0.79900
O123        O  0.48599207  0.07368957  0.95010791    -0.78300
Eu124      Eu  0.48976732  0.49640205  0.06921024     2.39800
Eu125      Eu  0.48826422  0.49901457  0.93207727     2.39600
Eu126      Eu  0.04024643  0.49929031  0.99950365     2.38400
Eu127      Eu  0.43771043  0.49602350  0.00181222     2.39900
Eu128      Eu  0.48713602  0.05020176  0.00255890     2.39800
O129        O  0.46207734  0.02378973  0.96802024    -0.92700
O130        O  0.01412819  0.02409605  0.03489460    -0.91600
C131        C  0.48982395  0.06364716  0.08745517     1.02500
C132        C  0.48707519  0.06757928  0.91928652     1.01200
C133        C  0.05639976  0.49900724  0.08322077     1.00600
C134        C  0.42390263  0.49433336  0.08698543     1.02600
C135        C  0.42226046  0.99886312  0.91717822     1.01500
C136        C  0.05430001  0.99654993  0.91478123     1.00400
C137        C  0.05161883  0.06677156  0.00103354     1.00400
C138        C  0.42123800  0.06180703  0.00286645     1.03000
H139        H  0.02403692  0.03705572  0.95341880     0.30400
O140        O  0.01360151  0.02560411  0.96677536    -1.04800
H141        H  0.45162823  0.03313318  0.05050127     0.32500
O142        O  0.46258430  0.02267159  0.03649607    -1.07400
N143        N  0.27816202  0.24610175  0.99799911    -0.36400
N144        N  0.23753951  0.20742850  0.99832138    -0.57000
N145        N  0.20023144  0.24941035  0.99965970    -0.36400
N146        N  0.24104449  0.28790198  0.99608839    -0.57000
C147        C  0.29161048  0.22419094  0.99123920     0.27100
C148        C  0.29351205  0.26660706  0.99104916     0.27100
C149        C  0.18480618  0.22859177  0.99443265     0.27100
C150        C  0.18669408  0.27110000  0.99199738     0.27100
C151        C  0.25771472  0.19153536  0.00372294     0.35800
C152        C  0.21640843  0.19324760  0.00516002     0.35800
C153        C  0.26227023  0.30223412  0.00167408     0.35800
C154        C  0.22099584  0.30411972  0.00085146     0.35800
C155        C  0.31585608  0.23082219  0.97995863    -0.21700
C156        C  0.31706413  0.25767374  0.97987640    -0.21700
C157        C  0.16105074  0.23715006  0.98380784    -0.21700
C158        C  0.16226184  0.26399072  0.98218667    -0.21700
C159        C  0.24940403  0.16702150  0.01361028    -0.22800
C160        C  0.22315816  0.16810645  0.01452972    -0.22800
C161        C  0.25571200  0.32775473  0.00971104    -0.22800
C162        C  0.22949358  0.32897852  0.00904701    -0.22800
C163        C  0.28345401  0.19849345  0.99812760    -0.18100
C164        C  0.28747416  0.29303879  0.99719482    -0.18100
C165        C  0.19521260  0.29718909  0.99572383    -0.18100
C166        C  0.19110520  0.20220978  0.00093126    -0.18100
H167        H  0.33128724  0.21767467  0.97327888     0.14800
H168        H  0.33357143  0.26928239  0.97306271     0.14800
H169        H  0.14447565  0.22530421  0.97811218     0.14800
H170        H  0.14678449  0.27683059  0.97501276     0.14800
H171        H  0.26102343  0.15010694  0.01935430     0.13100
H172        H  0.21049622  0.15217868  0.02111068     0.13100
H173        H  0.26847744  0.34388268  0.01502637     0.13100
H174        H  0.21801276  0.34622386  0.01379542     0.13100
H175        H  0.26100128  0.24696592  0.01093618     0.26300
H176        H  0.21780891  0.24899798  0.01145974     0.26300
C177        C  0.03024288  0.24953735  0.27048080     0.86600
C178        C  0.02723451  0.22503745  0.24891354    -0.53600
C179        C  0.50461715  0.22325908  0.23229142     0.09600
C180        C  0.48700300  0.24721855  0.23783371     0.20500
C181        C  0.02618580  0.27221324  0.24587487    -0.54300
C182        C  0.50379414  0.27090647  0.22870022     0.09700
C183        C  0.50610639  0.25064914  0.29232061    -0.53800
C184        C  0.48353937  0.24918366  0.27551243     0.10200
H185        H  0.04186267  0.20995843  0.24739673     0.14800
H186        H  0.46856433  0.24663905  0.22454971     0.00500
H187        H  0.03919743  0.28826422  0.24155110     0.15100
H188        H  0.50686394  0.25228481  0.31899827     0.14900
C189        C  0.21578040  0.49989466  0.22699036     0.86600
C190        C  0.21908592  0.47489465  0.24762362    -0.53600
C191        C  0.24091700  0.47428453  0.26605930     0.09600
C192        C  0.25801087  0.49878260  0.26186767     0.20500
C193        C  0.21856030  0.02269772  0.25141501    -0.54300
C194        C  0.24042906  0.02226995  0.26975802     0.09700
C195        C  0.24071835  0.50025922  0.20639295    -0.53800
C196        C  0.26277630  0.50047595  0.22436846     0.10200
H197        H  0.20557119  0.45876118  0.24727851     0.14800
H198        H  0.27578431  0.49832020  0.27677437     0.00500
H199        H  0.20450655  0.03829133  0.25352832     0.15100
H200        H  0.24140317  0.49872238  0.17977662     0.14900
C201        C  0.02810330  0.24793454  0.72817029     0.86600
C202        C  0.02398749  0.27232060  0.74968253    -0.53600
C203        C  0.50116177  0.27314623  0.76618389     0.09600
C204        C  0.48442584  0.24860781  0.76060157     0.20500
C205        C  0.02437186  0.22482395  0.75233222    -0.54300
C206        C  0.50169162  0.22501754  0.76931049     0.09700
C207        C  0.50423822  0.24611777  0.70614113    -0.53800
C208        C  0.48145019  0.24679601  0.72278676     0.10200
H209        H  0.03812635  0.28781352  0.75156680     0.14800
H210        H  0.46597508  0.24903710  0.77428901     0.00500
H211        H  0.03761271  0.20874800  0.75540839     0.15100
H212        H  0.50527202  0.24475299  0.67944915     0.14900
C213        C  0.21665247  0.49873435  0.77485951     0.86600
C214        C  0.21809512  0.02118236  0.74986061    -0.53600
C215        C  0.23965253  0.02163582  0.73056719     0.09600
C216        C  0.25891541  0.49968208  0.73949980     0.20500
C217        C  0.22180244  0.47355379  0.75493439    -0.54300
C218        C  0.24354851  0.47394771  0.73603276     0.09700
C219        C  0.24139754  0.50168074  0.79531072    -0.53800
C220        C  0.26341550  0.50242663  0.77706387     0.10200
H221        H  0.20307500  0.03578232  0.74799311     0.14800
H222        H  0.27665305  0.50008490  0.72442917     0.00500
H223        H  0.20903741  0.45679080  0.75541013     0.15100
H224        H  0.24224170  0.50142044  0.82196201     0.14900
C225        C  0.10490319  0.02119281  0.14752380    -0.22300
C226        C  0.12227511  0.50033831  0.14676612     0.09700
C227        C  0.11720701  0.47854288  0.12637674     0.10100
C228        C  0.09521161  0.47847674  0.10651534    -0.17200
C229        C  0.07781857  0.49943981  0.10705558    -0.27600
C230        C  0.08269611  0.02102435  0.12802644     0.18400
C231        C  0.14577135  0.50172638  0.16730805     0.12400
C232        C  0.13499358  0.45534717  0.12565691    -0.12000
H233        H  0.09159247  0.46199607  0.09031328     0.12700
C234        C  0.06558707  0.04467844  0.12958751    -0.22800
H235        H  0.10888988  0.03794765  0.16312359     0.08300
C236        C  0.16899165  0.51146486  0.15463849     0.04600
C237        C  0.19097952  0.51115151  0.17445538    -0.20100
C238        C  0.19060381  0.50149416  0.20714245    -0.12300
C239        C  0.16621731  0.99488907  0.22084333     0.13300
C240        C  0.14455769  0.99395629  0.20033355    -0.22800
C241        C  0.17045450  0.52274873  0.12037606    -0.05800
H242        H  0.20821412  0.51951810  0.16424627     0.14900
C243        C  0.16160568  0.98969172  0.25697321    -0.16000
H244        H  0.12629666  0.98780805  0.21047642     0.09200
H245        H  0.07682376  0.06216168  0.12230936     0.07000
H246        H  0.05850373  0.04743709  0.15519789     0.08200
H247        H  0.04879394  0.04322381  0.11314091     0.07300
H248        H  0.13636648  0.44679799  0.15072141     0.02200
H249        H  0.15433137  0.46152072  0.11738902     0.02700
H250        H  0.12812179  0.43986370  0.10859451     0.06200
H251        H  0.19007576  0.52955936  0.11418154     0.05100
H252        H  0.15729865  0.53974656  0.11849134    -0.00600
H253        H  0.16486140  0.50776545  0.10194100     0.00800
H254        H  0.14588476  0.00251843  0.26598238     0.04500
H255        H  0.17825630  0.99396162  0.27274909     0.06400
H256        H  0.15583660  0.96897579  0.26047132     0.07300
C257        C  0.38062563  0.00761414  0.16167294    -0.22300
C258        C  0.35949946  0.49184170  0.15410953     0.09700
C259        C  0.36029122  0.47595083  0.12566075     0.10100
C260        C  0.38192188  0.47662964  0.10503757    -0.17200
C261        C  0.40293607  0.49288812  0.11195998    -0.27600
C262        C  0.40237063  0.00835752  0.14099421     0.18400
C263        C  0.33560202  0.49452160  0.17391511     0.12400
C264        C  0.33801655  0.45871770  0.11660425    -0.12000
H265        H  0.38224540  0.46464084  0.08295934     0.12700
C266        C  0.42385967  0.02679626  0.14937663    -0.22800
H267        H  0.37971826  0.02005578  0.18332040     0.08300
C268        C  0.33030182  0.47880783  0.20169171     0.04600
C269        C  0.30683560  0.48187173  0.21856643    -0.20100
C270        C  0.28856119  0.50032773  0.20827675    -0.12300
C271        C  0.29451264  0.01669787  0.18108118     0.13300
C272        C  0.31766176  0.01318529  0.16402494    -0.22800
C273        C  0.34920918  0.45856887  0.21309951    -0.05800
H274        H  0.30241287  0.46920668  0.23920506     0.14900
C275        C  0.27741308  0.03864643  0.16962299    -0.16000
H276        H  0.32191224  0.02539034  0.14285939     0.09200
H277        H  0.44169681  0.01561409  0.15394278     0.07000
H278        H  0.41959180  0.03845062  0.17188765     0.08200
H279        H  0.42689215  0.04059684  0.12866018     0.07300
H280        H  0.32065159  0.47084681  0.11282434     0.02200
H281        H  0.33431783  0.44444018  0.13662291     0.02700
H282        H  0.34176984  0.44758641  0.09356118     0.06200
H283        H  0.34209188  0.44784746  0.23508423     0.05100
H284        H  0.36753627  0.46820683  0.21965624    -0.00600
H285        H  0.35276585  0.44411093  0.19315246     0.00800
H286        H  0.28872777  0.05696793  0.16768167     0.04500
H287        H  0.26144470  0.04291454  0.18681175     0.06400
H288        H  0.26956830  0.03380187  0.14495078     0.07300
C289        C  0.96742970  0.36447180  0.12380333    -0.22300
C290        C  0.48573389  0.36225742  0.14877899     0.09700
C291        C  0.50326564  0.38294226  0.15389940     0.10100
C292        C  0.50298847  0.40473639  0.13274854    -0.17200
C293        C  0.48561293  0.40630365  0.10653212    -0.27600
C294        C  0.96700955  0.38630206  0.10275430     0.18400
C295        C  0.48789074  0.33721481  0.16723782     0.12400
C296        C  0.52230626  0.38195753  0.18167111    -0.12000
H297        H  0.51694941  0.42019862  0.13601338     0.12700
C298        C  0.94633839  0.38809073  0.07700573    -0.22800
H299        H  0.95386774  0.34869023  0.12019341     0.08300
C300        C  0.47061388  0.32999653  0.19252326     0.04600
C301        C  0.47518080  0.30701408  0.21073371    -0.20100
C302        C  0.49679196  0.29140258  0.20443517    -0.12300
C303        C  0.01318133  0.29793062  0.17779219     0.13300
C304        C  0.00838740  0.32061874  0.15952236    -0.22800
C305        C  0.44805287  0.34704171  0.20114651    -0.05800
H306        H  0.46265263  0.30200077  0.23112872     0.14900
C307        C  0.03609295  0.28167390  0.16799551    -0.16000
H308        H  0.02124619  0.32584434  0.13954309     0.09200
H309        H  0.43564158  0.40675254  0.08004062     0.07000
H310        H  0.93239984  0.37177159  0.07915104     0.08200
H311        H  0.95481345  0.38713610  0.05194176     0.07300
H312        H  0.03537985  0.36506645  0.17842153     0.02200
H313        H  0.51198665  0.37997082  0.20551487     0.02700
H314        H  0.53414103  0.39998230  0.18275562     0.06200
H315        H  0.43680707  0.33884846  0.22199746     0.05100
H316        H  0.43516691  0.34871716  0.17958001    -0.00600
H317        H  0.45480839  0.36683587  0.20833018     0.00800
H318        H  0.03421826  0.27560220  0.14181761     0.04500
H319        H  0.03824475  0.26366033  0.18283864     0.06400
H320        H  0.05377332  0.29351145  0.17070433     0.07300
C321        C  0.01361626  0.12327389  0.13410894    -0.22300
C322        C  0.49297803  0.12836212  0.15527371     0.09700
C323        C  0.47156217  0.11152246  0.15504466     0.10100
C324        C  0.47156180  0.08957137  0.13397771    -0.17200
C325        C  0.49210173  0.08469340  0.11236738    -0.27600
C326        C  0.01336229  0.10188263  0.11240545     0.18400
C327        C  0.49384518  0.15227309  0.17609048     0.12400
C328        C  0.44831971  0.11742870  0.17587553    -0.12000
H329        H  0.45498125  0.07692041  0.13324220     0.12700
C330        C  0.03596089  0.09860235  0.08951416    -0.22800
H331        H  0.02991759  0.13640377  0.13413340     0.08300
C332        C  0.00205220  0.15145432  0.20910045     0.04600
C333        C  0.00352357  0.17481045  0.22724204    -0.20100
C334        C  0.49832804  0.19927298  0.21277496    -0.12300
C335        C  0.49041409  0.20002461  0.17942710     0.13300
C336        C  0.48800321  0.17645406  0.16169546    -0.22800
C337        C  0.01059341  0.12617418  0.22465010    -0.05800
H338        H  0.00979462  0.17407389  0.25266067     0.14900
C339        C  0.48607660  0.22540668  0.16155157    -0.16000
H340        H  0.48224647  0.17688675  0.13606215     0.09200
H341        H  0.05388543  0.09854410  0.10403849     0.07000
H342        H  0.03669773  0.11530142  0.07208677     0.08200
H343        H  0.03537673  0.08020869  0.07503888     0.07300
H344        H  0.44056150  0.13693570  0.16919538     0.02200
H345        H  0.45344823  0.11752312  0.20236109     0.02700
H346        H  0.43297681  0.10269414  0.17216099     0.06200
H347        H  0.01689835  0.12910994  0.25050917     0.05100
H348        H  0.02695429  0.11795607  0.21046197    -0.00600
H349        H  0.99472890  0.11178940  0.22474837     0.00800
H350        H  0.48243585  0.22219860  0.13489655     0.04500
H351        H  0.50326840  0.23790519  0.16364541     0.06400
H352        H  0.46918462  0.23571094  0.17176678     0.07300
C353        C  0.15533301  0.35540690  0.96814019    -0.22300
C354        C  0.13864385  0.35799458  0.99502286     0.09700
C355        C  0.14047625  0.34072462  0.02194792     0.10100
C356        C  0.15928894  0.32123177  0.02154671    -0.17200
C357        C  0.17590552  0.31841544  0.99456393    -0.27600
C358        C  0.17385419  0.33558493  0.96737571     0.18400
C359        C  0.11829119  0.37789215  0.99377304     0.12400
C360        C  0.12241576  0.34276612  0.05088483    -0.12000
H361        H  0.16094687  0.30792467  0.04220165     0.12700
C362        C  0.19037830  0.33317180  0.93698489    -0.22800
H363        H  0.15351648  0.36858262  0.94736274     0.08300
C364        C  0.12228231  0.40360010  0.00506370     0.04600
C365        C  0.10171541  0.42116197  0.00538277    -0.20100
C366        C  0.07716782  0.41357084  0.99475734    -0.12300
C367        C  0.07351584  0.38770389  0.98270096     0.13300
C368        C  0.09422896  0.37031098  0.98232412    -0.22800
C369        C  0.14813503  0.41235301  0.01711582    -0.05800
H370        H  0.10483104  0.44083050  0.01456124     0.14900
C371        C  0.04819645  0.37807854  0.96976097    -0.16000
H372        H  0.09159840  0.35042453  0.97359899     0.09200
H373        H  0.20173036  0.35135214  0.93375734     0.07000
H374        H  0.17801430  0.33039155  0.91505814     0.08200
H375        H  0.20380720  0.31641467  0.93797888     0.07300
H376        H  0.10243176  0.33978608  0.04248583     0.02200
H377        H  0.12408583  0.36240778  0.06241272     0.02700
H378        H  0.12664518  0.32783231  0.06995003     0.06200
H379        H  0.14791452  0.43312917  0.02522968     0.05100
H380        H  0.16245666  0.41032356  0.99698474    -0.00600
H381        H  0.15408940  0.40014416  0.03834213     0.00800
H382        H  0.04967618  0.35810960  0.95904491     0.04500
H383        H  0.04140134  0.39133579  0.95012112     0.06400
H384        H  0.03389887  0.37721893  0.99002283     0.07300
C385        C  0.39002758  0.36570124  0.98142025    -0.22300
C386        C  0.36690164  0.37072737  0.99766239     0.09700
C387        C  0.36301167  0.39467451  0.01408998     0.10100
C388        C  0.38263781  0.41324091  0.01407468    -0.17200
C389        C  0.40605988  0.40836205  0.99799479    -0.27600
C390        C  0.40977269  0.38421397  0.98127585     0.18400
C391        C  0.34686860  0.35059734  0.99692337     0.12400
C392        C  0.33808302  0.40067754  0.03131979    -0.12000
H393        H  0.37969085  0.43162607  0.02692588     0.12700
C394        C  0.43398248  0.37789178  0.96248713    -0.22800
H395        H  0.39253603  0.34717481  0.96873118     0.08300
C396        C  0.33006321  0.34844401  0.97000484     0.04600
C397        C  0.31103802  0.32921801  0.97062689    -0.20100
C398        C  0.30856819  0.31229127  0.99759382    -0.12300
C399        C  0.32571226  0.31424022  0.02438126     0.13300
C400        C  0.34471357  0.33349137  0.02366654    -0.22800
C401        C  0.33207921  0.36660995  0.94092358    -0.05800
H402        H  0.29786044  0.32745213  0.95017240     0.14900
C403        C  0.32435190  0.29668119  0.05414993    -0.16000
H404        H  0.35784141  0.33532364  0.04418315     0.09200
H405        H  0.43794204  0.39339354  0.94412111     0.07000
H406        H  0.43248965  0.35902124  0.94898690     0.08200
H407        H  0.45032647  0.37619398  0.97971570     0.07300
H408        H  0.33464867  0.38621564  0.05122055     0.02200
H409        H  0.32211452  0.39975297  0.01338792     0.02700
H410        H  0.33813808  0.42051419  0.04252603     0.06200
H411        H  0.31725756  0.36233542  0.92212283     0.05100
H412        H  0.35115240  0.36446026  0.92907343    -0.00600
H413        H  0.32956749  0.38716370  0.94925026     0.00800
H414        H  0.34268009  0.28586632  0.05665674     0.04500
H415        H  0.30866687  0.28215347  0.05285363     0.06400
H416        H  0.32125818  0.30874991  0.07660382     0.07300
C417        C  0.35732684  0.09630533  0.01537363    -0.22300
C418        C  0.36246215  0.12036215  0.00044448     0.09700
C419        C  0.38688919  0.12556708  0.98731432     0.10100
C420        C  0.40555030  0.10594738  0.98816689    -0.17200
C421        C  0.40050683  0.08151081  0.00269494    -0.27600
C422        C  0.37610326  0.07679270  0.01703520     0.18400
C423        C  0.34199963  0.14006448  0.99951874     0.12400
C424        C  0.39334530  0.15195571  0.97301002    -0.12000
H425        H  0.42419906  0.10976747  0.97741319     0.12700
C426        C  0.36983131  0.05185800  0.03523427    -0.22800
H427        H  0.33852809  0.09290960  0.02594355     0.08300
C428        C  0.32542466  0.14202495  0.97230793     0.04600
C429        C  0.30614931  0.16105254  0.97271569    -0.20100
C430        C  0.30322043  0.17789198  0.99977591    -0.12300
C431        C  0.31978625  0.17578273  0.02710569     0.13300
C432        C  0.33904410  0.15680023  0.02659171    -0.22800
C433        C  0.32809495  0.12404412  0.94301464    -0.05800
H434        H  0.29344161  0.16301486  0.95181031     0.14900
C435        C  0.31768857  0.19317198  0.05707065    -0.16000
H436        H  0.35187554  0.15502589  0.04741438     0.09200
H437        H  0.36955043  0.03504879  0.01789610     0.07000
H438        H  0.35068791  0.05279546  0.04718984     0.08200
H439        H  0.38417800  0.04840896  0.05488525     0.07300
H440        H  0.39100088  0.16726080  0.99225593     0.02200
H441        H  0.38047156  0.15642929  0.95209051     0.02700
H442        H  0.41339528  0.15272734  0.96388266     0.06200
H443        H  0.31362050  0.12838903  0.92381173     0.05100
H444        H  0.32551824  0.10343949  0.95096915    -0.00600
H445        H  0.34735686  0.12626634  0.93175738     0.00800
H446        H  0.31489375  0.18092043  0.07935997     0.04500
H447        H  0.30147526  0.20711113  0.05583098     0.06400
H448        H  0.33561244  0.20461823  0.05984080     0.07300
C449        C  0.08747270  0.13032688  0.98487023    -0.22300
C450        C  0.11031222  0.12543282  0.00167455     0.09700
C451        C  0.11371137  0.10161976  0.01850990     0.10100
C452        C  0.09406382  0.08302975  0.01808816    -0.17200
C453        C  0.07109850  0.08771136  0.00120198    -0.27600
C454        C  0.06774160  0.11172958  0.98427994     0.18400
C455        C  0.13070493  0.14534656  0.00084624     0.12400
C456        C  0.13819046  0.09572954  0.03655077    -0.12000
H457        H  0.09664037  0.06471993  0.03111362     0.12700
C458        C  0.04402759  0.11757810  0.96448788    -0.22800
H459        H  0.08525211  0.14870209  0.97188377     0.08300
C460        C  0.14799165  0.14686982  0.97415533     0.04600
C461        C  0.16754793  0.16559667  0.97491733    -0.20100
C462        C  0.17011378  0.18270308  0.00178840    -0.12300
C463        C  0.15271139  0.18116356  0.02850941     0.13300
C464        C  0.13307479  0.16254224  0.02756593    -0.22800
C465        C  0.14585222  0.12863112  0.94507895    -0.05800
H466        H  0.18093591  0.16696024  0.95451179     0.14900
C467        C  0.15451932  0.19850184  0.05850372    -0.16000
H468        H  0.11970420  0.16116744  0.04800314     0.09200
H469        H  0.04563033  0.13647836  0.95116290     0.07000
H470        H  0.02711108  0.11899099  0.98100742     0.08200
H471        H  0.04093861  0.10194491  0.94586665     0.07300
H472        H  0.14117386  0.11040688  0.05636837     0.02200
H473        H  0.15459446  0.09641654  0.01909437     0.02700
H474        H  0.13779568  0.07602298  0.04804436     0.06200
H475        H  0.16110112  0.13230481  0.92650950     0.05100
H476        H  0.12704863  0.13137525  0.93292387    -0.00600
H477        H  0.14755861  0.10804299  0.95347184     0.00800
H478        H  0.13686382  0.21049053  0.06068990     0.04500
H479        H  0.17116202  0.21191218  0.05776747     0.06400
H480        H  0.15638260  0.18618360  0.08087778     0.07300
C481        C  0.35625824  0.01067882  0.87978122    -0.22300
C482        C  0.35919062  0.49994536  0.84842244     0.09700
C483        C  0.38331744  0.49030656  0.83850331     0.10100
C484        C  0.40367744  0.49024974  0.86122159    -0.17200
C485        C  0.40059188  0.00028652  0.89331796    -0.27600
C486        C  0.37660887  0.01154495  0.90216877     0.18400
C487        C  0.33630798  0.49901002  0.82686960     0.12400
C488        C  0.38756929  0.48058427  0.80386100    -0.12000
H489        H  0.42199699  0.48213893  0.85388076     0.12700
C490        C  0.37233455  0.02561910  0.93450450    -0.22800
H491        H  0.33774936  0.01856016  0.88682451     0.08300
C492        C  0.31896906  0.47788683  0.82838200     0.04600
C493        C  0.29547201  0.47967590  0.81183524    -0.20100
C494        C  0.28900423  0.50185158  0.79321003    -0.12300
C495        C  0.30615569  0.02336978  0.79261770     0.13300
C496        C  0.32982286  0.02140412  0.80877743    -0.22800
C497        C  0.32503854  0.45370579  0.84804474    -0.05800
H498        H  0.28178435  0.46385438  0.81401797     0.14900
C499        C  0.29932418  0.04938155  0.77788887    -0.16000
H500        H  0.34268422  0.03805227  0.80892695     0.09200
H501        H  0.37257473  0.01156931  0.95528856     0.07000
H502        H  0.35350425  0.03570316  0.93529080     0.08200
H503        H  0.38732791  0.04076332  0.93799871     0.07300
H504        H  0.38363587  0.49664649  0.78618958     0.02200
H505        H  0.37455062  0.46396859  0.79855665     0.02700
H506        H  0.40758031  0.47389339  0.79994115     0.06200
H507        H  0.30944326  0.43899342  0.84651958     0.05100
H508        H  0.32774794  0.45894307  0.87436630    -0.00600
H509        H  0.34283617  0.44453900  0.83844860     0.00800
H510        H  0.30125403  0.06490871  0.79690320     0.04500
H511        H  0.27931023  0.05005796  0.76915139     0.06400
H512        H  0.31262583  0.05384425  0.75725390     0.07300
C513        C  0.11525308  0.47525639  0.87079407    -0.22300
C514        C  0.11941281  0.99631532  0.84945607     0.09700
C515        C  0.10058750  0.01609438  0.84719350     0.10100
C516        C  0.07863097  0.01485190  0.86737814    -0.17200
C517        C  0.07517178  0.99443835  0.89002661    -0.27600
C518        C  0.09330877  0.47392096  0.89089771     0.18400
C519        C  0.14394795  0.99771618  0.83058017     0.12400
C520        C  0.10413682  0.03900746  0.82438558    -0.12000
H521        H  0.06469343  0.03050744  0.86656266     0.12700
C522        C  0.08997332  0.45006644  0.91234829    -0.22800
H523        H  0.12941962  0.45977906  0.87201817     0.08300
C524        C  0.16662971  0.00682174  0.84528125     0.04600
C525        C  0.18958143  0.00705501  0.82699833    -0.20100
C526        C  0.19074828  0.49866173  0.79377761    -0.12300
C527        C  0.16703205  0.49166251  0.77848261     0.13300
C528        C  0.14439307  0.49049392  0.79740259    -0.22800
C529        C  0.16644865  0.01699100  0.88018389    -0.05800
H530        H  0.20626072  0.01492399  0.83895549     0.14900
C531        C  0.16401251  0.48579143  0.74222890    -0.16000
H532        H  0.12669159  0.48433382  0.78587015     0.09200
H533        H  0.10578797  0.44901511  0.93049551     0.07000
H534        H  0.09046551  0.43220180  0.89671839     0.08200
H535        H  0.07152174  0.44991671  0.92589863     0.07300
H536        H  0.10572017  0.03198690  0.79855329     0.02200
H537        H  0.12183331  0.04977722  0.83103770     0.02700
H538        H  0.08778288  0.05286379  0.82587637     0.06200
H539        H  0.18568239  0.02376754  0.88801651     0.05100
H540        H  0.16021828  0.00132205  0.89731913    -0.00600
H541        H  0.15303293  0.03378585  0.88220400     0.00800
H542        H  0.15768233  0.46521424  0.73896045     0.04500
H543        H  0.18146095  0.48876991  0.72748146     0.06400
H544        H  0.14923912  0.49895712  0.73171899     0.00900
C545        C  0.00726402  0.11524924  0.85173450    -0.22300
C546        C  0.48977497  0.13577139  0.85671421     0.09700
C547        C  0.47077678  0.13323528  0.88135612     0.10100
C548        C  0.46988165  0.11040152  0.90061755    -0.17200
C549        C  0.48745323  0.08987538  0.89581409    -0.27600
C550        C  0.00648909  0.09244840  0.87114970     0.18400
C551        C  0.49182657  0.15977974  0.83600670     0.12400
C552        C  0.45186861  0.15490666  0.88793230    -0.12000
H553        H  0.45552060  0.10866114  0.91985417     0.12700
C554        C  0.02681665  0.07186820  0.86637809    -0.22800
H555        H  0.02185539  0.11729567  0.83285242     0.08300
C556        C  0.01169520  0.17816027  0.84043583     0.04600
C557        C  0.01330219  0.19997643  0.81943709    -0.20100
C558        C  0.49570096  0.20393233  0.79375617    -0.12300
C559        C  0.47548314  0.18562149  0.78981472     0.13300
C560        C  0.47383949  0.16393791  0.81103285    -0.22800
C561        C  0.03132875  0.17469290  0.86716455    -0.05800
H562        H  0.02890382  0.21374183  0.82246470     0.14900
C563        C  0.45593209  0.18725142  0.76284087    -0.16000
H564        H  0.45867265  0.14972921  0.80753894     0.09200
H565        H  0.04097255  0.07761524  0.84722660     0.07000
H566        H  0.01793245  0.05316913  0.85850950     0.08200
H567        H  0.03728635  0.06885143  0.88984002     0.07300
H568        H  0.44003760  0.15836669  0.86571791     0.02200
H569        H  0.46225592  0.17315451  0.89436577     0.02700
H570        H  0.43876098  0.15005323  0.90864419     0.06200
H571        H  0.04522216  0.19113046  0.86766742     0.05100
H572        H  0.04224794  0.15634656  0.86300979    -0.00600
H573        H  0.02165707  0.17378150  0.89154987     0.00800
H574        H  0.45753862  0.16976896  0.74665443     0.04500
H575        H  0.45822045  0.20471173  0.74746658     0.06400
H576        H  0.43642701  0.18784994  0.77377630     0.07300
C577        C  0.96603993  0.38008264  0.85265017    -0.22300
C578        C  0.48788379  0.36412695  0.84993445     0.09700
C579        C  0.51073216  0.37205081  0.86562267     0.10100
C580        C  0.51068155  0.39456798  0.88557439    -0.17200
C581        C  0.48864317  0.40995147  0.88940567    -0.27600
C582        C  0.96626294  0.40311690  0.87190904     0.18400
C583        C  0.48724186  0.34029779  0.82862034     0.12400
C584        C  0.53541094  0.35725030  0.86051889    -0.12000
H585        H  0.52806744  0.40045648  0.89792842     0.12700
C586        C  0.94273633  0.42013109  0.87350231    -0.22800
H587        H  0.94882682  0.37452254  0.83957866     0.08300
C588        C  0.98601844  0.31471569  0.84182035     0.04600
C589        C  0.98939462  0.29292645  0.82077212    -0.20100
C590        C  0.49374360  0.29621450  0.78683685    -0.12300
C591        C  0.49264865  0.32178807  0.77342316     0.13300
C592        C  0.48951545  0.34343895  0.79447802    -0.22800
C593        C  0.98103399  0.31048002  0.87801890    -0.05800
H594        H  0.98953537  0.27334603  0.83098720     0.14900
C595        C  0.49478893  0.32648433  0.73688110    -0.16000
H596        H  0.48979018  0.36305565  0.78436948     0.09200
H597        H  0.93602597  0.42219170  0.89933505     0.07000
H598        H  0.92684282  0.41188067  0.85865578     0.08200
H599        H  0.94733307  0.43983260  0.86367422     0.07300
H600        H  0.54045865  0.35713264  0.83391129     0.02200
H601        H  0.53344588  0.33679033  0.86913989     0.02700
H602        H  0.55149494  0.36635163  0.87420811     0.06200
H603        H  0.98035851  0.28933797  0.88423938     0.05100
H604        H  0.96235084  0.31935087  0.88488379    -0.00600
H605        H  0.99626858  0.31968182  0.89302557     0.00800
H606        H  0.49044720  0.34713098  0.73049016     0.04500
H607        H  0.48106174  0.31380064  0.72347237     0.06400
H608        H  0.51453742  0.32240142  0.72837457     0.07300
C609        C  0.36482289  0.23597370  0.65867811    -0.22300
C610        C  0.38649660  0.25056124  0.64972281     0.09700
C611        C  0.38612116  0.26558448  0.62064085     0.10100
C612        C  0.36408781  0.26564695  0.60111141    -0.17200
C613        C  0.34241552  0.25070569  0.60949431    -0.27600
C614        C  0.34272580  0.23579088  0.63890088     0.18400
C615        C  0.40988927  0.24895551  0.67021533     0.12400
C616        C  0.40921228  0.28100693  0.60966484    -0.12000
H617        H  0.36397387  0.27715744  0.57869407     0.12700
C618        C  0.32044693  0.21880729  0.64887422    -0.22800
H619        H  0.36541911  0.22432886  0.68095674     0.08300
C620        C  0.41542162  0.26780747  0.69460758     0.04600
C621        C  0.43871162  0.26634450  0.71179463    -0.20100
C622        C  0.45634685  0.24616358  0.70552806    -0.12300
C623        C  0.44999201  0.22641770  0.68229463     0.13300
C624        C  0.42707774  0.22839563  0.66454607    -0.22800
C625        C  0.39659142  0.28923398  0.70266358    -0.05800
H626        H  0.44333201  0.28121717  0.72989698     0.14900
C627        C  0.46624066  0.20243450  0.67642443    -0.16000
H628        H  0.42245692  0.21363083  0.64627206     0.09200
H629        H  0.30337424  0.23114979  0.65380583     0.07000
H630        H  0.32455628  0.20758223  0.67166184     0.08200
H631        H  0.31612556  0.20455887  0.62895148     0.07300
H632        H  0.42571345  0.26761562  0.60595849     0.02200
H633        H  0.41423876  0.29583341  0.62854974     0.02700
H634        H  0.40571193  0.29141614  0.58609640     0.06200
H635        H  0.40392969  0.30249398  0.72217236     0.05100
H636        H  0.37840773  0.28044173  0.71154751    -0.00600
H637        H  0.39261875  0.30114679  0.68044732     0.00800
H638        H  0.45444356  0.18464427  0.68046483     0.04500
H639        H  0.48278769  0.20100462  0.69326722     0.06400
H640        H  0.47337865  0.20235937  0.65062105     0.07300
C641        C  0.08026344  0.26639435  0.66334244    -0.22300
C642        C  0.10005761  0.24902941  0.67094027     0.09700
C643        C  0.09754831  0.23289221  0.69881864     0.10100
C644        C  0.07450906  0.23299492  0.71693809    -0.17200
C645        C  0.05359298  0.24926744  0.70847142    -0.27600
C646        C  0.05753133  0.26739824  0.68207203     0.18400
C647        C  0.12332580  0.24833928  0.64950295     0.12400
C648        C  0.11955403  0.21608708  0.71007385    -0.12000
H649        H  0.07369880  0.22074697  0.73844896     0.12700
C650        C  0.03877446  0.28854152  0.67253848    -0.22800
H651        H  0.08268203  0.27954953  0.64261852     0.08300
C652        C  0.12621152  0.22946740  0.62427640     0.04600
C653        C  0.14808358  0.23004291  0.60391898    -0.20100
C654        C  0.16714529  0.24922418  0.60777425    -0.12300
C655        C  0.16386666  0.26851840  0.63263187     0.13300
C656        C  0.14222236  0.26756851  0.65341898    -0.22800
C657        C  0.10585058  0.20915815  0.61820257    -0.05800
H658        H  0.15018763  0.21556569  0.58452058     0.14900
C659        C  0.18184925  0.29124713  0.63686670    -0.16000
H660        H  0.13971365  0.28240353  0.67231061     0.09200
H661        H  0.03220908  0.28519295  0.64688312     0.07000
H662        H  0.04842065  0.30787785  0.67379157     0.08200
H663        H  0.02174984  0.28987459  0.68849925     0.07300
H664        H  0.13625562  0.22870138  0.71580792     0.02200
H665        H  0.12507375  0.20197583  0.69051390     0.02700
H666        H  0.11464201  0.20477307  0.73256169     0.06200
H667        H  0.11086968  0.19619757  0.59713340     0.05100
H668        H  0.08741611  0.21894760  0.61254797    -0.00600
H669        H  0.10330340  0.19670394  0.64030619     0.00800
H670        H  0.17103192  0.30985994  0.63458974     0.04500
H671        H  0.19724668  0.29169671  0.61809351     0.06400
H672        H  0.19053477  0.29040035  0.66176608     0.07300
C673        C  0.22692859  0.07532605  0.66706213    -0.22300
C674        C  0.25067241  0.08788967  0.66572506     0.09700
C675        C  0.27170415  0.07672022  0.68223021     0.10100
C676        C  0.26811767  0.05385645  0.70107985    -0.17200
C677        C  0.24381821  0.04228762  0.70465665    -0.27600
C678        C  0.22344229  0.05226673  0.68523283     0.18400
C679        C  0.25321349  0.11161283  0.64480427     0.12400
C680        C  0.29780697  0.08909602  0.68011142    -0.12000
H681        H  0.28432894  0.04534584  0.71342459     0.12700
C682        C  0.19833698  0.03822269  0.68098746    -0.22800
H683        H  0.21113628  0.08315249  0.65287647     0.08300
C684        C  0.25663919  0.10943623  0.61051097     0.04600
C685        C  0.25710748  0.13211911  0.59119904    -0.20100
C686        C  0.25425104  0.15739881  0.60501897    -0.12300
C687        C  0.25099582  0.15943882  0.63976289     0.13300
C688        C  0.25055319  0.13649446  0.65908051    -0.22800
C689        C  0.25970923  0.08307405  0.59418166    -0.05800
H690        H  0.25956301  0.12979226  0.56484919     0.14900
C691        C  0.24742719  0.18538515  0.65687586    -0.16000
H692        H  0.24771816  0.13789266  0.68550319     0.09200
H693        H  0.19404636  0.03621396  0.65431235     0.07000
H694        H  0.18272139  0.04955601  0.69296882     0.08200
H695        H  0.19882044  0.01811030  0.69088384     0.07300
H696        H  0.29699011  0.10932322  0.69010813     0.02200
H697        H  0.30423173  0.08980017  0.65401370     0.02700
H698        H  0.31222834  0.07795078  0.69441259     0.06200
H699        H  0.26249540  0.08483581  0.56712023     0.05100
H700        H  0.24237755  0.07100499  0.59856246    -0.00600
H701        H  0.27664113  0.07287100  0.60446358     0.00800
H702        H  0.24467959  0.18302934  0.68386444     0.04500
H703        H  0.23021076  0.19541912  0.64709224     0.06400
H704        H  0.26462053  0.19777690  0.65315372     0.07300
C705        C  0.25509996  0.35847185  0.66465317    -0.22300
C706        C  0.26145860  0.38318390  0.65207992     0.09700
C707        C  0.27052225  0.38516285  0.61947299     0.10100
C708        C  0.27062011  0.36289414  0.59915783    -0.17200
C709        C  0.26256385  0.33817572  0.61071746    -0.27600
C710        C  0.25619529  0.33580525  0.64473661     0.18400
C711        C  0.25732344  0.40694461  0.67278855     0.12400
C712        C  0.28005824  0.41086202  0.60608017    -0.12000
H713        H  0.27690115  0.36501563  0.57382352     0.12700
C714        C  0.25063096  0.30978088  0.66055178    -0.22800
H715        H  0.24897040  0.35700069  0.69013707     0.08300
C716        C  0.23436262  0.42141230  0.67080964     0.04600
C717        C  0.23099663  0.44366205  0.69079836    -0.20100
C718        C  0.24990616  0.45181005  0.71314288    -0.12300
C719        C  0.27300340  0.43730121  0.71494002     0.13300
C720        C  0.27645252  0.41514778  0.69460542    -0.22800
C721        C  0.21317368  0.41303345  0.64802275    -0.05800
H722        H  0.21323622  0.45457705  0.68940298     0.14900
C723        C  0.29337180  0.44386395  0.73962421    -0.16000
H724        H  0.29396804  0.40384834  0.69612402     0.09200
H725        H  0.23423926  0.30028256  0.64832051     0.07000
H726        H  0.24578913  0.31184427  0.68711488     0.08200
H727        H  0.26773263  0.29695986  0.65859436     0.07300
H728        H  0.29633908  0.41785837  0.62123293     0.02200
H729        H  0.26454593  0.42568158  0.60681718     0.02700
H730        H  0.28680885  0.40899959  0.58018524     0.06200
H731        H  0.19640435  0.42634085  0.64968373     0.05100
H732        H  0.20672691  0.39300670  0.65458801    -0.00600
H733        H  0.22008835  0.41304891  0.62213092     0.00800
H734        H  0.30971805  0.42999480  0.73830697     0.04500
H735        H  0.28504384  0.44250223  0.76464940     0.06400
H736        H  0.30102282  0.46375915  0.73521169     0.07300
C737        C  0.35661714  0.11741626  0.51322949    -0.22300
C738        C  0.38131955  0.12431422  0.50315889     0.09700
C739        C  0.38667070  0.15027044  0.49400439     0.10100
C740        C  0.36693575  0.16881800  0.49464599    -0.17200
C741        C  0.34170476  0.16198531  0.50344044    -0.27600
C742        C  0.33668199  0.13584664  0.51365831     0.18400
C743        C  0.40124933  0.10386615  0.50191558     0.12400
C744        C  0.41321751  0.15834956  0.48353592    -0.12000
H745        H  0.37134066  0.18877228  0.48796469     0.12700
C746        C  0.31083132  0.12713531  0.52614551    -0.22800
H747        H  0.35294741  0.09739097  0.52064459     0.08300
C748        C  0.41546011  0.09704437  0.53009338     0.04600
C749        C  0.43411462  0.07741297  0.52759419    -0.20100
C750        C  0.43888730  0.06476773  0.49749383    -0.12300
C751        C  0.42482948  0.07182521  0.46918868     0.13300
C752        C  0.40600947  0.09122919  0.47184282    -0.22800
C753        C  0.41121581  0.11080331  0.56251508    -0.05800
H754        H  0.44528640  0.07210479  0.54902225     0.14900
C755        C  0.42954059  0.05966629  0.43582428    -0.16000
H756        H  0.39512888  0.09675492  0.45024083     0.09200
H757        H  0.30472468  0.13988610  0.54692435     0.07000
H758        H  0.31122999  0.10668647  0.53536279     0.08200
H759        H  0.29653443  0.12784679  0.50603629     0.07300
H760        H  0.41918915  0.14696566  0.46147419     0.02200
H761        H  0.42691056  0.15462536  0.50384098     0.02700
H762        H  0.41414995  0.17946389  0.47722529     0.06200
H763        H  0.42409018  0.10317792  0.58198374     0.05100
H764        H  0.39114259  0.10796754  0.57081199    -0.00600
H765        H  0.41500393  0.13205123  0.55963588     0.00800
H766        H  0.41165349  0.05039727  0.42686946     0.04500
H767        H  0.44469290  0.04448555  0.43607338     0.06400
H768        H  0.43543924  0.07511063  0.41814848     0.07300
C769        C  0.10849908  0.09056768  0.45905501    -0.22300
C770        C  0.11033251  0.10802328  0.48553470     0.09700
C771        C  0.09187821  0.10766167  0.51096532     0.10100
C772        C  0.07246372  0.08882481  0.51008234    -0.17200
C773        C  0.07103935  0.07073619  0.48410213    -0.27600
C774        C  0.08889276  0.07197393  0.45785337     0.18400
C775        C  0.13175231  0.12663166  0.48618004     0.12400
C776        C  0.09280332  0.12704138  0.53899593    -0.12000
H777        H  0.05859008  0.08784125  0.52998082     0.12700
C778        C  0.08779588  0.05406850  0.42832720    -0.22800
H779        H  0.12254715  0.09137807  0.43933313     0.08300
C780        C  0.15449144  0.12092991  0.50325335     0.04600
C781        C  0.17365871  0.13999337  0.50504265    -0.20100
C782        C  0.17055429  0.16447531  0.48991528    -0.12300
C783        C  0.14825164  0.16946673  0.47106067     0.13300
C784        C  0.12902210  0.15044441  0.46972359    -0.22800
C785        C  0.15846851  0.09475353  0.51948203    -0.05800
H786        H  0.19094286  0.13592263  0.51881107     0.14900
C787        C  0.14482246  0.19424408  0.45135368    -0.16000
H788        H  0.11163010  0.15418986  0.45602359     0.09200
H789        H  0.10554514  0.04214729  0.42707278     0.07000
H790        H  0.08631411  0.06596697  0.40554719     0.08200
H791        H  0.07117836  0.04061537  0.42888324     0.07300
H792        H  0.09161064  0.14726032  0.52916056     0.02200
H793        H  0.11096444  0.12481903  0.55278725     0.02700
H794        H  0.07668604  0.12419012  0.55655351     0.06200
H795        H  0.17743129  0.09350437  0.53165596     0.05100
H796        H  0.15739303  0.07898800  0.50066488    -0.00600
H797        H  0.14348545  0.09140609  0.53845781     0.00800
H798        H  0.12731468  0.19355402  0.43593009     0.04500
H799        H  0.16144811  0.19701706  0.43458617     0.06400
H800        H  0.14287087  0.21136905  0.46800704     0.07300
C801        C  0.10118191  0.40215624  0.52178861    -0.22300
C802        C  0.11783139  0.40042439  0.49479189     0.09700
C803        C  0.11425284  0.41654663  0.46707924     0.10100
C804        C  0.09378449  0.43421312  0.46698857    -0.17200
C805        C  0.07688741  0.43578403  0.49388055    -0.27600
C806        C  0.08072795  0.41977561  0.52179764     0.18400
C807        C  0.13755885  0.37998179  0.49513284     0.12400
C808        C  0.13181983  0.41483337  0.43761703    -0.12000
H809        H  0.09076994  0.44674196  0.44582686     0.12700
C810        C  0.06377454  0.42079231  0.55192103    -0.22800
H811        H  0.10405644  0.38947423  0.54285502     0.08300
C812        C  0.16162966  0.38407873  0.50962554     0.04600
C813        C  0.17918385  0.36339547  0.51034914    -0.20100
C814        C  0.17302618  0.33864887  0.49723566    -0.12300
C815        C  0.14870858  0.33483224  0.48247698     0.13300
C816        C  0.13136152  0.35565442  0.48165495    -0.22800
C817        C  0.16865025  0.41015033  0.52444694    -0.05800
H818        H  0.19769124  0.36652532  0.52166376     0.14900
C819        C  0.14088692  0.30933026  0.46672216    -0.16000
H820        H  0.11267543  0.35297141  0.47061077     0.09200
H821        H  0.07556932  0.42513689  0.57396572     0.07000
H822        H  0.05432446  0.40152537  0.55533396     0.08200
H823        H  0.04870355  0.43598492  0.55043886     0.07300
H824        H  0.13107574  0.39482871  0.42694415     0.02200
H825        H  0.15175649  0.41922539  0.44517807     0.02700
H826        H  0.12630183  0.42893808  0.41810272     0.06200
H827        H  0.18839209  0.41006686  0.53451021     0.05100
H828        H  0.15523118  0.41496428  0.54486078    -0.00600
H829        H  0.16751965  0.42563584  0.50536642     0.00800
H830        H  0.12191378  0.31074964  0.45459360     0.04500
H831        H  0.13937916  0.29376898  0.48565848     0.06400
H832        H  0.15511016  0.30374266  0.44756750     0.07300
C833        C  0.38347354  0.35227646  0.47431096    -0.22300
C834        C  0.38142378  0.37459736  0.49421962     0.09700
C835        C  0.35922668  0.37861450  0.51347948     0.10100
C836        C  0.34016044  0.35930255  0.51391109    -0.17200
C837        C  0.34270540  0.33625394  0.49523505    -0.27600
C838        C  0.36429248  0.33307672  0.47432232     0.18400
C839        C  0.40281699  0.39351312  0.49431119     0.12400
C840        C  0.35549924  0.40339948  0.53313273    -0.12000
H841        H  0.32333214  0.36205437  0.52925786     0.12700
C842        C  0.36688293  0.31006516  0.45114443    -0.22800
H843        H  0.40028686  0.34983340  0.45885942     0.08300
C844        C  0.42181126  0.39294204  0.51894706     0.04600
C845        C  0.44169519  0.41139530  0.51804214    -0.20100
C846        C  0.44323787  0.42993854  0.49264890    -0.12300
C847        C  0.42469541  0.42976582  0.46728734     0.13300
C848        C  0.40457182  0.41168528  0.46864636    -0.22800
C849        C  0.42125929  0.37266110  0.54585744    -0.05800
H850        H  0.45599900  0.41154293  0.53731604     0.14900
C851        C  0.42565229  0.44821724  0.43836060    -0.16000
H852        H  0.39019207  0.41165701  0.44944546     0.09200
H853        H  0.36898576  0.29163567  0.46525285     0.07000
H854        H  0.38398844  0.31190019  0.43496348     0.08200
H855        H  0.34977306  0.30881953  0.43505610     0.07300
H856        H  0.35583465  0.42050368  0.51631490     0.02200
H857        H  0.37096021  0.40562268  0.55155225     0.02700
H858        H  0.33690844  0.40345202  0.54651931     0.06200
H859        H  0.43777039  0.37476807  0.56280721     0.05100
H860        H  0.42202437  0.35278653  0.53479014    -0.00600
H861        H  0.40346562  0.37452326  0.56065281     0.00800
H862        H  0.42593495  0.43675044  0.41508202     0.04500
H863        H  0.44282773  0.46092053  0.43830522     0.06400
H864        H  0.40840403  0.46091341  0.43864845     0.07300
C865        C  0.08386240  0.22795702  0.33079292    -0.22300
C866        C  0.10143209  0.24847465  0.32826652     0.09700
C867        C  0.09643669  0.26909862  0.30631060     0.10100
C868        C  0.07369673  0.26904501  0.28790895    -0.17200
C869        C  0.05524870  0.24886822  0.29079156    -0.27600
C870        C  0.06085946  0.22785973  0.31292984     0.18400
C871        C  0.12401977  0.24884108  0.35056749     0.12400
C872        C  0.11491707  0.29157903  0.30279561    -0.12000
H873        H  0.07077970  0.28537426  0.27176553     0.12700
C874        C  0.04346169  0.20472367  0.31913965    -0.22800
H875        H  0.08787868  0.21205217  0.34766718     0.08300
C876        C  0.12126197  0.25490910  0.38427428     0.04600
C877        C  0.14296393  0.25539884  0.40450646    -0.20100
C878        C  0.16777942  0.24998977  0.39222430    -0.12300
C879        C  0.17031682  0.24342890  0.35828101     0.13300
C880        C  0.14843559  0.24311698  0.33798716    -0.22800
C881        C  0.09538159  0.26115442  0.39894318    -0.05800
H882        H  0.14027164  0.25992178  0.43035197     0.14900
C883        C  0.19566748  0.23593687  0.34318998    -0.16000
H884        H  0.15031229  0.23817971  0.31209733     0.09200
H885        H  0.03920436  0.20337123  0.34591819     0.07000
H886        H  0.05333214  0.18649015  0.31125456     0.08200
H887        H  0.02488317  0.20543717  0.30643235     0.07300
H888        H  0.13365664  0.28425625  0.29368674     0.02200
H889        H  0.11759724  0.30128448  0.32704604     0.02700
H890        H  0.10795517  0.30649814  0.28509659     0.06200
H891        H  0.09669029  0.26623124  0.42551432     0.05100
H892        H  0.08253117  0.24397385  0.39664577    -0.00600
H893        H  0.08678934  0.27805964  0.38586805     0.00800
H894        H  0.19374198  0.23040040  0.31683135     0.04500
H895        H  0.20373856  0.21883573  0.35640840     0.06400
H896        H  0.20912109  0.25269900  0.34445003     0.07300
C897        C  0.39007533  0.23702486  0.37940366    -0.22300
C898        C  0.38879686  0.25166723  0.35045443     0.09700
C899        C  0.36579320  0.26462579  0.34236453     0.10100
C900        C  0.34466898  0.26309526  0.36402308    -0.17200
C901        C  0.34608287  0.24893193  0.39365106    -0.27600
C902        C  0.36921339  0.23548013  0.40113478     0.18400
C903        C  0.41199914  0.25263544  0.32918329     0.12400
C904        C  0.36353545  0.27987902  0.31082621    -0.12000
H905        H  0.32717896  0.27344579  0.35810613     0.12700
C906        C  0.37219916  0.21887634  0.43154528    -0.22800
H907        H  0.40774620  0.22690671  0.38516155     0.08300
C908        C  0.43050904  0.27253960  0.33278399     0.04600
C909        C  0.45315847  0.27143481  0.31396815    -0.20100
C910        C  0.45822910  0.25034159  0.29259254    -0.12300
C911        C  0.44001785  0.22995528  0.28993435     0.13300
C912        C  0.41698420  0.23157328  0.30790913    -0.22800
C913        C  0.42689699  0.29422538  0.35761366    -0.05800
H914        H  0.46734412  0.28675918  0.31660851     0.14900
C915        C  0.44542612  0.20563163  0.27004118    -0.16000
H916        H  0.40311265  0.21586131  0.30628157     0.09200
H917        H  0.37226805  0.23137440  0.45393528     0.07000
H918        H  0.39053612  0.20786575  0.43140591     0.08200
H919        H  0.35641031  0.20437788  0.43290154     0.07300
H920        H  0.36686218  0.26666239  0.28948316     0.02200
H921        H  0.37792028  0.29582574  0.31028289     0.02700
H922        H  0.34427105  0.28881321  0.30819903     0.06200
H923        H  0.44321897  0.30813876  0.35738093     0.05100
H924        H  0.42537114  0.28579365  0.38274891    -0.00600
H925        H  0.40919179  0.30535656  0.35218701     0.00800
H926        H  0.43005282  0.19081305  0.27301249     0.04500
H927        H  0.46364921  0.19664762  0.27832162     0.06400
H928        H  0.44672876  0.21041920  0.24348604     0.07300
C929        C  0.25763896  0.40480090  0.29269994    -0.22300
C930        C  0.25351509  0.40636286  0.32683860     0.09700
C931        C  0.24681934  0.43070133  0.34105191     0.10100
C932        C  0.24405928  0.45285834  0.32080731    -0.17200
C933        C  0.24752738  0.45118260  0.28657396    -0.27600
C934        C  0.25464497  0.42686647  0.27235959     0.18400
C935        C  0.25519825  0.38223557  0.34734317     0.12400
C936        C  0.24181005  0.43302822  0.37752111    -0.12000
H937        H  0.23828254  0.47138180  0.33158668     0.12700
C938        C  0.25910900  0.42346668  0.23586140    -0.22800
H939        H  0.26281578  0.38614170  0.28178041     0.08300
C940        C  0.23431596  0.36480984  0.35019584     0.04600
C941        C  0.23577417  0.34362075  0.37222377    -0.20100
C942        C  0.25758200  0.33953032  0.39163719    -0.12300
C943        C  0.27876917  0.35661798  0.38818245     0.13300
C944        C  0.27730637  0.37768982  0.36600357    -0.22800
C945        C  0.21026992  0.36897825  0.33055088    -0.05800
H946        H  0.21954258  0.33058925  0.37499157     0.14900
C947        C  0.30326738  0.35310218  0.40724286    -0.16000
H948        H  0.29337563  0.39098389  0.36368847     0.09200
H949        H  0.24538067  0.40889021  0.22594735     0.07000
H950        H  0.27890232  0.41629433  0.23152879     0.08200
H951        H  0.25682653  0.44185806  0.22178713     0.07300
H952        H  0.25932862  0.42773157  0.39138225     0.02200
H953        H  0.22602406  0.41964606  0.38474336     0.02700
H954        H  0.23624466  0.45324609  0.38462937     0.06200
H955        H  0.19558340  0.35389963  0.33612230     0.05100
H956        H  0.21476743  0.36795789  0.30381644    -0.00600
H957        H  0.20200395  0.38847268  0.33638812     0.00800
H958        H  0.31947506  0.35053316  0.38974635     0.04500
H959        H  0.30298990  0.33582277  0.42368176     0.06400
H960        H  0.30685038  0.37073562  0.42258019     0.07300
C961        C  0.27686420  0.11747164  0.37268570    -0.22300
C962        C  0.25832951  0.11592445  0.34786917     0.09700
C963        C  0.24197700  0.13759855  0.34264467     0.10100
C964        C  0.24352964  0.15961832  0.36356543    -0.17200
C965        C  0.26108955  0.16054151  0.38965984    -0.27600
C966        C  0.27859881  0.13950841  0.39346843     0.18400
C967        C  0.25535011  0.09091020  0.32902312     0.12400
C968        C  0.22288647  0.13748214  0.31494645    -0.12000
H969        H  0.23032817  0.17575530  0.36028519     0.12700
C970        C  0.29949144  0.14032909  0.41902684    -0.22800
H971        H  0.28965569  0.10103567  0.37632443     0.08300
C972        C  0.27269673  0.08314149  0.30399658     0.04600
C973        C  0.26818902  0.05983790  0.28618171    -0.20100
C974        C  0.24683731  0.04399447  0.29298538    -0.12300
C975        C  0.23041315  0.05100795  0.31942993     0.13300
C976        C  0.23470629  0.07444807  0.33677021    -0.22800
C977        C  0.29550791  0.09982025  0.29547063    -0.05800
H978        H  0.28084173  0.05446955  0.26602929     0.14900
C979        C  0.20844331  0.03398277  0.33040397    -0.16000
H980        H  0.22179600  0.07995000  0.35660255     0.09200
H981        H  0.31105459  0.15839348  0.41591654     0.07000
H982        H  0.31260953  0.12330333  0.41676053     0.08200
H983        H  0.29116959  0.13987383  0.44418182     0.07300
H984        H  0.20904081  0.12124463  0.31830499     0.02200
H985        H  0.23307482  0.13489504  0.29108784     0.02700
H986        H  0.21192586  0.15609039  0.31388217     0.06200
H987        H  0.30674688  0.09134786  0.27474364     0.05100
H988        H  0.30832321  0.10143466  0.31712489    -0.00600
H989        H  0.28904346  0.11967233  0.28817739     0.00800
H990        H  0.21059719  0.02933505  0.35697470     0.04500
H991        H  0.20757157  0.01511048  0.31696223     0.06400
H992        H  0.19011074  0.04455956  0.32678589     0.07300
O993        O  0.25815846  0.70628193  0.40378652    -0.80000
O994        O  0.25479571  0.70407510  0.59308195    -0.81500
O995        O  0.29797263  0.67551192  0.50027755    -0.78500
O996        O  0.21428829  0.67605769  0.49461051    -0.76900
O997        O  0.18401944  0.70825771  0.49660723    -0.78700
O998        O  0.32897948  0.70673497  0.50214268    -0.79700
O999        O  0.25459199  0.67453782  0.55091092    -0.81000
O1000       O  0.25911620  0.67557482  0.44473717    -0.81300
Eu1001     Eu  0.25618748  0.69735693  0.49842693     2.39200
O1002       O  0.23005127  0.72299771  0.53326994    -0.88800
O1003       O  0.28247770  0.72362186  0.46532300    -0.92400
C1004       C  0.25950350  0.68231642  0.41414956     1.02300
C1005       C  0.25449009  0.68029487  0.58183710     1.02100
C1006       C  0.32157320  0.68264511  0.50197493     1.02100
C1007       C  0.19091445  0.68417214  0.49400187     0.99900
H1008       H  0.29200045  0.71168351  0.54731887     0.29700
O1009       O  0.28146373  0.72286139  0.53385660    -1.01200
H1010       H  0.22018239  0.71344633  0.45113490     0.29700
O1011       O  0.23081097  0.72421308  0.46504778    -1.03700
O1012       O  0.25864020  0.79230889  0.59589787    -0.80900
O1013       O  0.25659954  0.79429202  0.40560748    -0.80500
O1014       O  0.32790949  0.75051026  0.55474992    -0.78900
O1015       O  0.18259408  0.74937927  0.55300424    -0.82200
O1016       O  0.18344208  0.75087551  0.44704407    -0.80100
O1017       O  0.32963500  0.74921554  0.44790723    -0.78800
O1018       O  0.29901661  0.82421366  0.49862771    -0.80300
O1019       O  0.21624948  0.82503379  0.49957605    -0.82200
O1020       O  0.32928202  0.79198994  0.49892051    -0.78900
O1021       O  0.18517675  0.79377888  0.49911067    -0.81600
O1022       O  0.29776037  0.74852613  0.59570071    -0.77300
O1023       O  0.30076873  0.75004349  0.40575157    -0.77400
O1024       O  0.21321129  0.75026153  0.40576242    -0.77000
O1025       O  0.21211310  0.74946140  0.59458227    -0.80500
O1026       O  0.25984851  0.82315361  0.55532297    -0.79900
O1027       O  0.25757392  0.82496506  0.44699940    -0.78300
Eu1028     Eu  0.25543878  0.74888321  0.56855289     2.39800
Eu1029     Eu  0.25695216  0.75018396  0.43097113     2.39600
Eu1030     Eu  0.30754382  0.74944196  0.50069647     2.38400
Eu1031     Eu  0.20537218  0.75056988  0.49991784     2.39900
Eu1032     Eu  0.25729005  0.80248344  0.50064326     2.39800
O1033       O  0.23155062  0.77660856  0.46614455    -0.92700
O1034       O  0.28184643  0.77547856  0.53490665    -0.91600
C1035       C  0.26023088  0.81632445  0.58597853     1.02500
C1036       C  0.25721111  0.81816489  0.41631665     1.01200
C1037       C  0.32117730  0.74971626  0.58534439     1.00600
C1038       C  0.18878478  0.74944551  0.58376500     1.02600
C1039       C  0.18970158  0.75042940  0.41629021     1.01500
C1040       C  0.32397046  0.74932234  0.41710978     1.00400
C1041       C  0.32239894  0.81619458  0.49772802     1.00400
C1042       C  0.19266991  0.81777635  0.49869403     1.03000
H1043       H  0.29356482  0.78687249  0.45288704     0.30400
O1044       O  0.28257385  0.77595866  0.46627031    -1.04800
H1045       H  0.21996509  0.78775002  0.54823914     0.32500
O1046       O  0.23065499  0.77664823  0.53468698    -1.07400
N1047       N  0.46886861  0.49818449  0.49391099    -0.36400
N1048       N  0.00923423  0.95977855  0.49331340    -0.57000
N1049       N  0.04658102  0.50194123  0.48806491    -0.36400
N1050       N  0.00613219  0.54026132  0.49157259    -0.57000
C1051       C  0.45566353  0.97628280  0.50162625     0.27100
C1052       C  0.45408581  0.51884506  0.50248172     0.27100
C1053       C  0.06198076  0.98164961  0.49574113     0.27100
C1054       C  0.06023152  0.52404927  0.49296832     0.27100
C1055       C  0.48922898  0.94343645  0.48886976     0.35800
C1056       C  0.03058157  0.94553363  0.48789964     0.35800
C1057       C  0.48452671  0.55435644  0.48786663     0.35800
C1058       C  0.02564223  0.55629011  0.48340463     0.35800
C1059       C  0.43218268  0.98307775  0.51519150    -0.21700
C1060       C  0.43118997  0.50999470  0.51576147    -0.21700
C1061       C  0.08577276  0.99096849  0.50532011    -0.21700
C1062       C  0.08468009  0.51775980  0.50349675    -0.21700
C1063       C  0.49789895  0.91857983  0.48085639    -0.22800
C1064       C  0.02417557  0.91987614  0.48043965    -0.22800
C1065       C  0.49032875  0.57955375  0.47767899    -0.22800
C1066       C  0.01646057  0.58074184  0.47470433    -0.22800
C1067       C  0.46340239  0.95042735  0.49421785    -0.18100
C1068       C  0.45983184  0.54531823  0.49588719    -0.18100
C1069       C  0.05167200  0.54966170  0.48626670    -0.18100
C1070       C  0.05573348  0.95492901  0.49227114    -0.18100
H1071       H  0.41716942  0.96999642  0.52336672     0.14800
H1072       H  0.41521970  0.52168633  0.52435492     0.14800
H1073       H  0.10232831  0.97963300  0.51252941     0.14800
H1074       H  0.10018665  0.53108118  0.50904003     0.14800
H1075       H  0.48653642  0.90123625  0.47642394     0.13100
H1076       H  0.03709197  0.90373756  0.47560991     0.13100
H1077       H  0.47714721  0.59548014  0.47317084     0.13100
H1078       H  0.02745431  0.59775237  0.46749965     0.13100
H1079       H  0.48534546  0.49893398  0.47952991     0.26300
H1080       H  0.02894795  0.50067428  0.47644389     0.26300
O1081       O  0.48762686  0.95531085  0.90457459    -0.80000
O1082       O  0.48889625  0.95194490  0.09398646    -0.81500
O1083       O  0.03295616  0.92510113  0.99724170    -0.78500
O1084       O  0.44936355  0.92240371  0.99824123    -0.76900
O1085       O  0.41760196  0.95299296  0.00002438    -0.78700
O1086       O  0.06282953  0.95752398  0.99713749    -0.79700
O1087       O  0.48850064  0.92203324  0.05185720    -0.81000
O1088       O  0.49055963  0.92387169  0.94465911    -0.81300
Eu1089     Eu  0.49046683  0.94515323  0.99896637     2.39200
O1090       O  0.46445959  0.96998928  0.03440661    -0.88800
O1091       O  0.01489456  0.97291005  0.96533160    -0.92400
C1092       C  0.48893615  0.93121025  0.91432988     1.02300
C1093       C  0.48779409  0.92824008  0.08268577     1.02100
C1094       C  0.05626643  0.93323158  0.99635474     1.02100
C1095       C  0.42564009  0.92917600  0.99865289     0.99900
H1096       H  0.02718137  0.96026664  0.04651427     0.29700
O1097       O  0.01604024  0.97125373  0.03360728    -1.01200
H1098       H  0.45301591  0.96021920  0.95255539     0.29700
O1099       O  0.46367204  0.97120616  0.96616700    -1.03700
O1100       O  0.48980219  0.53957058  0.09730681    -0.80900
O1101       O  0.48806818  0.54387060  0.90797541    -0.80500
O1102       O  0.06272144  0.99941378  0.05246535    -0.78900
O1103       O  0.41699668  0.99411760  0.05637880    -0.82200
O1104       O  0.41638334  0.99695605  0.94798423    -0.80100
O1105       O  0.06122584  0.99718329  0.94527004    -0.78800
O1106       O  0.02789586  0.57350320  0.00251678    -0.80300
O1107       O  0.44450783  0.57024262  0.00356821    -0.82200
O1108       O  0.05973572  0.54294477  0.99979801    -0.78900
O1109       O  0.41487342  0.53754206  0.00202138    -0.81600
O1110       O  0.03312488  0.99787589  0.09431689    -0.77300
O1111       O  0.03082890  0.49775532  0.90466107    -0.77400
O1112       O  0.44545919  0.49964618  0.90603023    -0.77000
O1113       O  0.44738165  0.99535205  0.09684772    -0.80500
O1114       O  0.48866932  0.57106039  0.05715305    -0.79900
O1115       O  0.48597002  0.57370537  0.95015613    -0.78300
Eu1116     Eu  0.48976117  0.99639878  0.06919289     2.39800
Eu1117     Eu  0.48828258  0.99899984  0.93205256     2.39600
Eu1118     Eu  0.04025110  0.99928053  0.99949749     2.38400
Eu1119     Eu  0.43772094  0.99601049  0.00178287     2.39900
Eu1120     Eu  0.48713333  0.55020971  0.00259891     2.39800
O1121       O  0.46206892  0.52380459  0.96805637    -0.92700
O1122       O  0.01413393  0.52410322  0.03491659    -0.91600
C1123       C  0.48983147  0.56365154  0.08749555     1.02500
C1124       C  0.48704359  0.56759831  0.91933350     1.01200
C1125       C  0.05639605  0.99898899  0.08322226     1.00600
C1126       C  0.42388675  0.99433134  0.08694880     1.02600
C1127       C  0.42223551  0.49893056  0.91722433     1.01500
C1128       C  0.05427446  0.49661368  0.91478488     1.00400
C1129       C  0.05161351  0.56677955  0.00105881     1.00400
C1130       C  0.42124266  0.56182579  0.00298452     1.03000
H1131       H  0.02401887  0.53706975  0.95344072     0.30400
O1132       O  0.01358730  0.52561463  0.96679760    -1.04800
H1133       H  0.45163249  0.53313460  0.05054248     0.32500
O1134       O  0.46258346  0.52267500  0.03652844    -1.07400
N1135       N  0.27815682  0.74608673  0.99803659    -0.36400
N1136       N  0.23752226  0.70742675  0.99839408    -0.57000
N1137       N  0.20022625  0.74942266  0.99968883    -0.36400
N1138       N  0.24105019  0.78790031  0.99607435    -0.57000
C1139       C  0.29160360  0.72416583  0.99132429     0.27100
C1140       C  0.29351643  0.76658133  0.99107049     0.27100
C1141       C  0.18479399  0.72860752  0.99447458     0.27100
C1142       C  0.18669385  0.77111380  0.99202010     0.27100
C1143       C  0.25769030  0.69152735  0.00381084     0.35800
C1144       C  0.21638412  0.69325453  0.00522441     0.35800
C1145       C  0.26228207  0.80222956  0.00163362     0.35800
C1146       C  0.22100793  0.80412806  0.00082967     0.35800
C1147       C  0.31585841  0.73077995  0.98006027    -0.21700
C1148       C  0.31707326  0.75763074  0.97993686    -0.21700
C1149       C  0.16103956  0.73717017  0.98385097    -0.21700
C1150       C  0.16225787  0.76400961  0.98221925    -0.21700
C1151       C  0.24936803  0.66701760  0.01369796    -0.22800
C1152       C  0.22312232  0.66811199  0.01460251    -0.22800
C1153       C  0.25573414  0.82775871  0.00964124    -0.22800
C1154       C  0.22951599  0.82899019  0.00899103    -0.22800
C1155       C  0.28343419  0.69847578  0.99823204    -0.18100
C1156       C  0.28748299  0.79302107  0.99716858    -0.18100
C1157       C  0.19522008  0.79720104  0.99573146    -0.18100
C1158       C  0.19108492  0.70222528  0.00098354    -0.18100
H1159       H  0.33129045  0.71762238  0.97341587     0.14800
H1160       H  0.33358809  0.76922806  0.97312280     0.14800
H1161       H  0.14446002  0.72532820  0.97816404     0.14800
H1162       H  0.14678324  0.77685224  0.97504330     0.14800
H1163       H  0.26097976  0.65009954  0.01945113     0.13100
H1164       H  0.21045291  0.65218946  0.02117992     0.13100
H1165       H  0.26850617  0.84388611  0.01493318     0.13100
H1166       H  0.21804219  0.84624246  0.01372722     0.13100
H1167       H  0.26098787  0.74696759  0.01095265     0.26300
H1168       H  0.21780466  0.74900938  0.01148597     0.26300
C1169       C  0.03023479  0.74955630  0.27054255     0.86600
C1170       C  0.02722892  0.72505044  0.24898314    -0.53600
C1171       C  0.50461278  0.72327120  0.23235286     0.09600
C1172       C  0.48699937  0.74723473  0.23788117     0.20500
C1173       C  0.02618483  0.77222606  0.24592585    -0.54300
C1174       C  0.50379411  0.77092011  0.22874570     0.09700
C1175       C  0.50609184  0.75067668  0.29237369    -0.53800
C1176       C  0.48352897  0.74920937  0.27555821     0.10200
H1177       H  0.04185658  0.70997039  0.24747754     0.14800
H1178       H  0.46856280  0.74665447  0.22459285     0.00500
H1179       H  0.03919974  0.78827363  0.24159874     0.15100
H1180       H  0.50684365  0.75231937  0.31905108     0.14900
C1181       C  0.21578127  0.99985058  0.22702252     0.86600
C1182       C  0.21909008  0.97486404  0.24767929    -0.53600
C1183       C  0.24092143  0.97426706  0.26611520     0.09600
C1184       C  0.25801505  0.99876296  0.26189738     0.20500
C1185       C  0.21855978  0.52272726  0.25140349    -0.54300
C1186       C  0.24042615  0.52228604  0.26974903     0.09700
C1187       C  0.24071828  0.00020255  0.20642364    -0.53800
C1188       C  0.26277842  0.00043367  0.22439516     0.10200
H1189       H  0.20557988  0.95872655  0.24734601     0.14800
H1190       H  0.27578934  0.99831066  0.27680294     0.00500
H1191       H  0.20450810  0.53832198  0.25352822     0.15100
H1192       H  0.24139844  0.99864971  0.17980826     0.14900
C1193       C  0.02810644  0.74793265  0.72820167     0.86600
C1194       C  0.02399633  0.77232134  0.74970858    -0.53600
C1195       C  0.50117379  0.77315108  0.76620794     0.09600
C1196       C  0.48443191  0.74861847  0.76063449     0.20500
C1197       C  0.02436768  0.72482396  0.75236343    -0.54300
C1198       C  0.50168984  0.72502341  0.76934453     0.09700
C1199       C  0.50424010  0.74611853  0.70617157    -0.53800
C1200       C  0.48145322  0.74680643  0.72282250     0.10200
H1201       H  0.03813873  0.78781100  0.75159118     0.14800
H1202       H  0.46598237  0.74905650  0.77432445     0.00500
H1203       H  0.03760227  0.70874123  0.75543176     0.15100
H1204       H  0.50527065  0.74474840  0.67947997     0.14900
C1205       C  0.21668876  0.99874614  0.77484215     0.86600
C1206       C  0.21808209  0.52116666  0.74987956    -0.53600
C1207       C  0.23963074  0.52159148  0.73056877     0.09600
C1208       C  0.25894957  0.99973887  0.73947824     0.20500
C1209       C  0.22186339  0.97357364  0.75491384    -0.54300
C1210       C  0.24360331  0.97399069  0.73600035     0.09700
C1211       C  0.24143373  0.00171643  0.79529193    -0.53800
C1212       C  0.26344757  0.00248424  0.77703806     0.10200
H1213       H  0.20307845  0.53578481  0.74802808     0.14800
H1214       H  0.27668406  0.00017314  0.72440335     0.00500
H1215       H  0.20911094  0.95680058  0.75538582     0.15100
H1216       H  0.24228304  0.00145143  0.82194287     0.14900
C1217       C  0.10487210  0.52121849  0.14755491    -0.22300
C1218       C  0.12228609  0.00029389  0.14675719     0.09700
C1219       C  0.11719370  0.97849131  0.12638943     0.10100
C1220       C  0.09519198  0.97843199  0.10653661    -0.17200
C1221       C  0.07781648  0.99941126  0.10706012    -0.27600
C1222       C  0.08267068  0.52104239  0.12804949     0.18400
C1223       C  0.14578286  0.00166779  0.16730600     0.12400
C1224       C  0.13496478  0.95528344  0.12567760    -0.12000
H1225       H  0.09155576  0.96194501  0.09035127     0.12700
C1226       C  0.06553954  0.54467894  0.12963206    -0.22800
H1227       H  0.10884049  0.53796634  0.16317457     0.08300
C1228       C  0.16900374  0.01142276  0.15465654     0.04600
C1229       C  0.19098612  0.01111229  0.17448547    -0.20100
C1230       C  0.19060680  0.00143868  0.20716485    -0.12300
C1231       C  0.16621480  0.49496769  0.22084035     0.13300
C1232       C  0.14454889  0.49403840  0.20034356    -0.22800
C1233       C  0.17047432  0.02271735  0.12040097    -0.05800
H1234       H  0.20822078  0.01949265  0.16429295     0.14900
C1235       C  0.16161134  0.48978534  0.25697567    -0.16000
H1236       H  0.12628741  0.48790516  0.21049984     0.09200
H1237       H  0.07676721  0.56218061  0.12240237     0.07000
H1238       H  0.05843380  0.54740113  0.15523828     0.08200
H1239       H  0.04876174  0.54322982  0.11315916     0.07300
H1240       H  0.13633836  0.94674313  0.15074683     0.02200
H1241       H  0.15430428  0.96144261  0.11739797     0.02700
H1242       H  0.12807920  0.93979796  0.10862735     0.06200
H1243       H  0.19009525  0.02953756  0.11422122     0.05100
H1244       H  0.15731287  0.03971056  0.11851602    -0.00600
H1245       H  0.16489342  0.00773557  0.10195734     0.00800
H1246       H  0.14591635  0.50264204  0.26599216     0.04500
H1247       H  0.17827610  0.49402352  0.27273911     0.06400
H1248       H  0.15580839  0.46908048  0.26048422     0.07300
C1249       C  0.38063551  0.50764799  0.16168781    -0.22300
C1250       C  0.35949080  0.99180583  0.15409568     0.09700
C1251       C  0.36027942  0.97592648  0.12563593     0.10100
C1252       C  0.38190392  0.97662107  0.10500048    -0.17200
C1253       C  0.40291732  0.99288159  0.11192330    -0.27600
C1254       C  0.40238650  0.50837626  0.14101981     0.18400
C1255       C  0.33559488  0.99447968  0.17390954     0.12400
C1256       C  0.33800963  0.95868451  0.11658581    -0.12000
H1257       H  0.38222454  0.96464012  0.08291549     0.12700
C1258       C  0.42387935  0.52681092  0.14939970    -0.22800
H1259       H  0.37972530  0.52009808  0.18332739     0.08300
C1260       C  0.33031464  0.97878839  0.20171333     0.04600
C1261       C  0.30685189  0.98185229  0.21859934    -0.20100
C1262       C  0.28856208  0.00028801  0.20829542    -0.12300
C1263       C  0.29452950  0.51675733  0.18108818     0.13300
C1264       C  0.31768443  0.51324767  0.16404416    -0.22800
C1265       C  0.34923797  0.95857038  0.21313494    -0.05800
H1266       H  0.30244376  0.96920193  0.23925748     0.14900
C1267       C  0.27744325  0.53872199  0.16964585    -0.16000
H1268       H  0.32195022  0.52546806  0.14289770     0.09200
H1269       H  0.44171054  0.51562364  0.15398488     0.07000
H1270       H  0.41960787  0.53847898  0.17189836     0.08200
H1271       H  0.42692432  0.54059889  0.12867302     0.07300
H1272       H  0.32063828  0.97080614  0.11281632     0.02200
H1273       H  0.33432326  0.94440387  0.13660521     0.02700
H1274       H  0.34176118  0.94755677  0.09353881     0.06200
H1275       H  0.34213594  0.94786342  0.23513902     0.05100
H1276       H  0.36756267  0.96822428  0.21966600    -0.00600
H1277       H  0.35279329  0.94409845  0.19320313     0.00800
H1278       H  0.28876402  0.55704234  0.16774665     0.04500
H1279       H  0.26146345  0.54297644  0.18682219     0.06400
H1280       H  0.26961419  0.53390438  0.14495698     0.07300
C1281       C  0.96745567  0.86446248  0.12381560    -0.22300
C1282       C  0.48575354  0.86226818  0.14880248     0.09700
C1283       C  0.50327285  0.88296451  0.15391941     0.10100
C1284       C  0.50299012  0.90475112  0.13275596    -0.17200
C1285       C  0.48561989  0.90630108  0.10653169    -0.27600
C1286       C  0.96702862  0.88628557  0.10275469     0.18400
C1287       C  0.48791436  0.83723318  0.16727809     0.12400
C1288       C  0.52230450  0.88200122  0.18170222    -0.12000
H1289       H  0.51694167  0.92022243  0.13601936     0.12700
C1290       C  0.94636253  0.88805324  0.07699696    -0.22800
H1291       H  0.95390337  0.84867185  0.12020815     0.08300
C1292       C  0.47062909  0.83001522  0.19255446     0.04600
C1293       C  0.47518797  0.80703129  0.21076608    -0.20100
C1294       C  0.49679863  0.79141658  0.20447662    -0.12300
C1295       C  0.01319933  0.79794548  0.17784349     0.13300
C1296       C  0.00841497  0.82063718  0.15957572    -0.22800
C1297       C  0.44806696  0.84706236  0.20116680    -0.05800
H1298       H  0.46265300  0.80201862  0.23115441     0.14900
C1299       C  0.03610946  0.78168407  0.16805364    -0.16000
H1300       H  0.02128038  0.82586272  0.13960353     0.09200
H1301       H  0.43565460  0.90671084  0.08002014     0.07000
H1302       H  0.93243332  0.87172595  0.07914491     0.08200
H1303       H  0.95484370  0.88709646  0.05193641     0.07300
H1304       H  0.03538709  0.86511439  0.17846913     0.02200
H1305       H  0.51197770  0.88002025  0.20554161     0.02700
H1306       H  0.53413056  0.90003228  0.18278078     0.06200
H1307       H  0.43681330  0.83886911  0.22201071     0.05100
H1308       H  0.43518838  0.84874094  0.17959338    -0.00600
H1309       H  0.45482241  0.86685525  0.20835624     0.00800
H1310       H  0.03424197  0.77561939  0.14187233     0.04500
H1311       H  0.03824989  0.76366562  0.18289033     0.06400
H1312       H  0.05379249  0.79351521  0.17077774     0.07300
C1313       C  0.01361938  0.62327795  0.13416442    -0.22300
C1314       C  0.49298208  0.62836265  0.15533432     0.09700
C1315       C  0.47156855  0.61151916  0.15510220     0.10100
C1316       C  0.47156964  0.58957055  0.13402900    -0.17200
C1317       C  0.49210849  0.58469669  0.11241456    -0.27600
C1318       C  0.01336615  0.60189027  0.11245339     0.18400
C1319       C  0.49384625  0.65227567  0.17615311     0.12400
C1320       C  0.44832598  0.61741890  0.17593577    -0.12000
H1321       H  0.45499014  0.57691870  0.13329177     0.12700
C1322       C  0.03596224  0.59861993  0.08955600    -0.22800
H1323       H  0.02991879  0.63641027  0.13418929     0.08300
C1324       C  0.00205219  0.65145865  0.20916479     0.04600
C1325       C  0.00352507  0.67481727  0.22730381    -0.20100
C1326       C  0.49832736  0.69928121  0.21283620    -0.12300
C1327       C  0.49041094  0.70002890  0.17948849     0.13300
C1328       C  0.48800255  0.67645652  0.16175798    -0.22800
C1329       C  0.01058944  0.62617931  0.22471998    -0.05800
H1330       H  0.00979568  0.67408232  0.25272266     0.14900
C1331       C  0.48606559  0.72540902  0.16161142    -0.16000
H1332       H  0.48224464  0.67688779  0.13612510     0.09200
H1333       H  0.05388896  0.59856442  0.10407564     0.07000
H1334       H  0.03669259  0.61532254  0.07213365     0.08200
H1335       H  0.03538044  0.58022890  0.07507529     0.07300
H1336       H  0.44056413  0.63692529  0.16925987     0.02200
H1337       H  0.45345527  0.61751106  0.20242099     0.02700
H1338       H  0.43298542  0.60268200  0.17221965     0.06200
H1339       H  0.01689239  0.62911726  0.25057950     0.05100
H1340       H  0.02695049  0.61795764  0.21053558    -0.00600
H1341       H  0.99472356  0.61179624  0.22481913     0.00800
H1342       H  0.48242886  0.72219871  0.13495588     0.04500
H1343       H  0.50325172  0.73791593  0.16370779     0.06400
H1344       H  0.46916751  0.73570537  0.17182243     0.07300
C1345       C  0.15531664  0.85541102  0.96818289    -0.22300
C1346       C  0.13864330  0.85799652  0.99508187     0.09700
C1347       C  0.14049368  0.84072844  0.02200610     0.10100
C1348       C  0.15931270  0.82124258  0.02159056    -0.17200
C1349       C  0.17591381  0.81842824  0.99459143    -0.27600
C1350       C  0.17384005  0.83559216  0.96740099     0.18400
C1351       C  0.11828353  0.87788507  0.99384505     0.12400
C1352       C  0.12244277  0.84276146  0.05095393    -0.12000
H1353       H  0.16098475  0.80793636  0.04224447     0.12700
C1354       C  0.19033842  0.83317297  0.93698804    -0.22800
H1355       H  0.15348326  0.86858352  0.94740467     0.08300
C1356       C  0.12226930  0.90359413  0.00513388     0.04600
C1357       C  0.10169855  0.92114970  0.00545359    -0.20100
C1358       C  0.07715565  0.91355430  0.99481690    -0.12300
C1359       C  0.07350864  0.88768667  0.98276116     0.13300
C1360       C  0.09422348  0.87029661  0.98239629    -0.22800
C1361       C  0.14812190  0.91235752  0.01717419    -0.05800
H1362       H  0.10480917  0.94081904  0.01463236     0.14900
C1363       C  0.04819562  0.87806040  0.96980002    -0.16000
H1364       H  0.09159820  0.85040945  0.97367102     0.09200
H1365       H  0.20168492  0.85135410  0.93373560     0.07000
H1366       H  0.17795560  0.83038436  0.91508053     0.08200
H1367       H  0.20377057  0.81641808  0.93797077     0.07300
H1368       H  0.10245701  0.83977268  0.04256637     0.02200
H1369       H  0.12410833  0.86240359  0.06248154     0.02700
H1370       H  0.12668525  0.82782894  0.07001588     0.06200
H1371       H  0.14789631  0.93313460  0.02528436     0.05100
H1372       H  0.16243883  0.91033152  0.99703700    -0.00600
H1373       H  0.15408609  0.90015312  0.03839978     0.00800
H1374       H  0.04968002  0.85808843  0.95909401     0.04500
H1375       H  0.04141356  0.89131283  0.95014651     0.06400
H1376       H  0.03388547  0.87720665  0.99004756     0.07300
C1377       C  0.39003592  0.86568836  0.98140828    -0.22300
C1378       C  0.36689219  0.87072735  0.99760089     0.09700
C1379       C  0.36298233  0.89468936  0.01398655     0.10100
C1380       C  0.38260833  0.91325611  0.01398258    -0.17200
C1381       C  0.40605070  0.90836236  0.99795756    -0.27600
C1382       C  0.40978127  0.88420037  0.98127644     0.18400
C1383       C  0.34686732  0.85058876  0.99686687     0.12400
C1384       C  0.33803440  0.90070670  0.03116250    -0.12000
H1385       H  0.37964539  0.93165229  0.02680256     0.12700
C1386       C  0.43401272  0.87785853  0.96254462    -0.22800
H1387       H  0.39255984  0.84714991  0.96875221     0.08300
C1388       C  0.33009822  0.84838594  0.96991689     0.04600
C1389       C  0.31107872  0.82915386  0.97054675    -0.20100
C1390       C  0.30858173  0.81226790  0.99755020    -0.12300
C1391       C  0.32569470  0.81426088  0.02436508     0.13300
C1392       C  0.34468818  0.83351963  0.02364429    -0.22800
C1393       C  0.33214534  0.86650698  0.94079470    -0.05800
H1394       H  0.29792503  0.82735347  0.95007142     0.14900
C1395       C  0.32430821  0.79674165  0.05416898    -0.16000
H1396       H  0.35779100  0.83538678  0.04418258     0.09200
H1397       H  0.43799884  0.89334461  0.94416695     0.07000
H1398       H  0.43253260  0.85897810  0.94906411     0.08200
H1399       H  0.45033461  0.87616981  0.97980935     0.07300
H1400       H  0.33457816  0.88626206  0.05107698     0.02200
H1401       H  0.32208611  0.89976561  0.01320206     0.02700
H1402       H  0.33807640  0.92055305  0.04234305     0.06200
H1403       H  0.31735011  0.86219675  0.92197225     0.05100
H1404       H  0.35123459  0.86434651  0.92899088    -0.00600
H1405       H  0.32961513  0.88707257  0.94906533     0.00800
H1406       H  0.34263917  0.78594092  0.05673518     0.04500
H1407       H  0.30863335  0.78220245  0.05287204     0.06400
H1408       H  0.32118112  0.80883888  0.07659100     0.07300
C1409       C  0.35737636  0.59635955  0.01566598    -0.22300
C1410       C  0.36248014  0.62038943  0.00064801     0.09700
C1411       C  0.38688427  0.62557514  0.98743246     0.10100
C1412       C  0.40554184  0.60595168  0.98826069    -0.17200
C1413       C  0.40052174  0.58153672  0.00285714    -0.27600
C1414       C  0.37615484  0.57684811  0.01731051     0.18400
C1415       C  0.34200523  0.64007757  0.99970140     0.12400
C1416       C  0.39332654  0.65195062  0.97307779    -0.12000
H1417       H  0.42416964  0.60975101  0.97743444     0.12700
C1418       C  0.36993101  0.55194745  0.03560986    -0.22800
H1419       H  0.33859988  0.59298171  0.02631083     0.08300
C1420       C  0.32546514  0.64204459  0.97245488     0.04600
C1421       C  0.30617494  0.66105635  0.97284178    -0.20100
C1422       C  0.30319514  0.67787159  0.99991602    -0.12300
C1423       C  0.31971947  0.67575060  0.02728544     0.13300
C1424       C  0.33899330  0.65678431  0.02679333    -0.22800
C1425       C  0.32817914  0.62408018  0.94315061    -0.05800
H1426       H  0.29349700  0.66302733  0.95190774     0.14900
C1427       C  0.31756227  0.69311459  0.05726681    -0.16000
H1428       H  0.35179439  0.65500213  0.04764588     0.09200
H1429       H  0.36960531  0.53510586  0.01832349     0.07000
H1430       H  0.35081928  0.55290846  0.04764693     0.08200
H1431       H  0.38433080  0.54853433  0.05520653     0.07300
H1432       H  0.39101820  0.66727022  0.99231233     0.02200
H1433       H  0.38042456  0.65641877  0.95218695     0.02700
H1434       H  0.41336263  0.65270750  0.96389767     0.06200
H1435       H  0.31371874  0.62842118  0.92392887     0.05100
H1436       H  0.32561321  0.60346937  0.95108523    -0.00600
H1437       H  0.34744712  0.62632188  0.93191983     0.00800
H1438       H  0.31473971  0.68084343  0.07953334     0.04500
H1439       H  0.30134174  0.70704363  0.05599992     0.06400
H1440       H  0.33547362  0.70457142  0.06009921     0.07300
C1441       C  0.08745783  0.63033926  0.98490716    -0.22300
C1442       C  0.11029319  0.62545102  0.00172284     0.09700
C1443       C  0.11369444  0.60163851  0.01855884     0.10100
C1444       C  0.09405121  0.58304411  0.01812934    -0.17200
C1445       C  0.07109019  0.58772050  0.00123181    -0.27600
C1446       C  0.06773264  0.61173652  0.98430580     0.18400
C1447       C  0.13068276  0.64536689  0.00089514     0.12400
C1448       C  0.13817162  0.59575296  0.03660644    -0.12000
H1449       H  0.09662771  0.56473505  0.03115657     0.12700
C1450       C  0.04402550  0.61757575  0.96449567    -0.22800
H1451       H  0.08523708  0.64871318  0.97191780     0.08300
C1452       C  0.14797066  0.64688899  0.97420571     0.04600
C1453       C  0.16752577  0.66561633  0.97496786    -0.20100
C1454       C  0.17008844  0.68272503  0.00183684    -0.12300
C1455       C  0.15268070  0.68119151  0.02855267     0.13300
C1456       C  0.13304636  0.66256782  0.02761036    -0.22800
C1457       C  0.14583395  0.62864817  0.94513095    -0.05800
H1458       H  0.18091638  0.66697756  0.95456490     0.14900
C1459       C  0.15447958  0.69853964  0.05853896    -0.16000
H1460       H  0.11967256  0.66119569  0.04804440     0.09200
H1461       H  0.04562862  0.63647509  0.95116868     0.07000
H1462       H  0.02710116  0.61898512  0.98100220     0.08200
H1463       H  0.04094942  0.60193964  0.94587473     0.07300
H1464       H  0.14114815  0.61042976  0.05642642     0.02200
H1465       H  0.15457857  0.59644499  0.01915495     0.02700
H1466       H  0.13777932  0.57604539  0.04809753     0.06200
H1467       H  0.16108305  0.63232220  0.92656191     0.05100
H1468       H  0.12703064  0.63138974  0.93297424    -0.00600
H1469       H  0.14754187  0.60806073  0.95352597     0.00800
H1470       H  0.13682293  0.71052822  0.06071038     0.04500
H1471       H  0.17112169  0.71195074  0.05780324     0.06400
H1472       H  0.15633703  0.68622912  0.08092055     0.07300
C1473       C  0.35634256  0.51107167  0.87971874    -0.22300
C1474       C  0.35923392  0.99989946  0.84831739     0.09700
C1475       C  0.38345058  0.99057561  0.83828910     0.10100
C1476       C  0.40378982  0.99047372  0.86104124    -0.17200
C1477       C  0.40058492  0.50037880  0.89335517    -0.27600
C1478       C  0.37671902  0.51194496  0.90207148     0.18400
C1479       C  0.33637999  0.99900906  0.82671418     0.12400
C1480       C  0.38781618  0.98124534  0.80350076    -0.12000
H1481       H  0.42218257  0.98259370  0.85360110     0.12700
C1482       C  0.37261865  0.52633397  0.93422250    -0.22800
H1483       H  0.33791330  0.51919584  0.88666765     0.08300
C1484       C  0.31913191  0.97779965  0.82798395     0.04600
C1485       C  0.29559790  0.97963435  0.81153846    -0.20100
C1486       C  0.28903875  0.00190868  0.79316194    -0.12300
C1487       C  0.30620201  0.52324218  0.79246097     0.13300
C1488       C  0.32985597  0.52129217  0.80865354    -0.22800
C1489       C  0.32534676  0.95346285  0.84726233    -0.05800
H1490       H  0.28195480  0.96376451  0.81360576     0.14900
C1491       C  0.29947083  0.54918906  0.77748423    -0.16000
H1492       H  0.34278855  0.53788316  0.80861145     0.09200
H1493       H  0.37274429  0.51245876  0.95519342     0.07000
H1494       H  0.35389037  0.53661912  0.93489778     0.08200
H1495       H  0.38777065  0.54134409  0.93749537     0.07300
H1496       H  0.38376713  0.99745393  0.78608609     0.02200
H1497       H  0.37493883  0.96457401  0.79790630     0.02700
H1498       H  0.40788564  0.97476813  0.79950745     0.06200
H1499       H  0.30981870  0.93868905  0.84555259     0.05100
H1500       H  0.32807862  0.95845801  0.87365316    -0.00600
H1501       H  0.34317057  0.94447738  0.83747184     0.00800
H1502       H  0.30149244  0.56482731  0.79633713     0.04500
H1503       H  0.27944677  0.54990320  0.76879537     0.06400
H1504       H  0.31276866  0.55345830  0.75677979     0.07300
C1505       C  0.11532315  0.97519725  0.87086794    -0.22300
C1506       C  0.11939043  0.49643060  0.84948578     0.09700
C1507       C  0.10061368  0.51626358  0.84731804     0.10100
C1508       C  0.07865198  0.51500964  0.86748907    -0.17200
C1509       C  0.07514165  0.49453022  0.89002856    -0.27600
C1510       C  0.09338409  0.97387191  0.89098381     0.18400
C1511       C  0.14391866  0.49781950  0.83060205     0.12400
C1512       C  0.10421800  0.53923662  0.82462010    -0.12000
H1513       H  0.06475090  0.53070074  0.86674964     0.12700
C1514       C  0.09010323  0.95006940  0.91253893    -0.22800
H1515       H  0.12952400  0.95975684  0.87216417     0.08300
C1516       C  0.16660955  0.50690749  0.84529385     0.04600
C1517       C  0.18955849  0.50710677  0.82700702    -0.20100
C1518       C  0.19078302  0.99863442  0.79376007    -0.12300
C1519       C  0.16707701  0.99160470  0.77846041     0.13300
C1520       C  0.14443755  0.99039703  0.79737756    -0.22800
C1521       C  0.16644327  0.51708577  0.88019227    -0.05800
H1522       H  0.20624568  0.51496787  0.83895390     0.14900
C1523       C  0.16407009  0.98573720  0.74220358    -0.16000
H1524       H  0.12674592  0.98421542  0.78583849     0.09200
H1525       H  0.10591277  0.94911388  0.93070211     0.07000
H1526       H  0.09064987  0.93216178  0.89699002     0.08200
H1527       H  0.07164507  0.94990491  0.92607267     0.07300
H1528       H  0.10579603  0.53228805  0.79875639     0.02200
H1529       H  0.12193457  0.54994817  0.83133100     0.02700
H1530       H  0.08789245  0.55312434  0.82616773     0.06200
H1531       H  0.18568683  0.52383576  0.88802159     0.05100
H1532       H  0.16018977  0.50142967  0.89733262    -0.00600
H1533       H  0.15305170  0.53390088  0.88220706     0.00800
H1534       H  0.15779379  0.96514365  0.73892516     0.04500
H1535       H  0.18150956  0.98877155  0.72745562     0.06400
H1536       H  0.14926195  0.99886562  0.73170124     0.00900
C1537       C  0.00723097  0.61527027  0.85178445    -0.22300
C1538       C  0.48974585  0.63579549  0.85677155     0.09700
C1539       C  0.47075208  0.63326330  0.88142052     0.10100
C1540       C  0.46985458  0.61042774  0.90067906    -0.17200
C1541       C  0.48741887  0.58989655  0.89586496    -0.27600
C1542       C  0.00645512  0.59246934  0.87119774     0.18400
C1543       C  0.49180361  0.65980424  0.83606580     0.12400
C1544       C  0.45185224  0.65494012  0.88800881    -0.12000
H1545       H  0.45549816  0.60869004  0.91992176     0.12700
C1546       C  0.02678305  0.57189030  0.86642646    -0.22800
H1547       H  0.02181977  0.61731404  0.83289861     0.08300
C1548       C  0.01170550  0.67815575  0.84045330     0.04600
C1549       C  0.01332054  0.69996630  0.81944734    -0.20100
C1550       C  0.49569698  0.70394497  0.79379861    -0.12300
C1551       C  0.47544390  0.68566857  0.78990295     0.13300
C1552       C  0.47379188  0.66399052  0.81112872    -0.22800
C1553       C  0.03136359  0.67466515  0.86714779    -0.05800
H1554       H  0.02894520  0.71370862  0.82244471     0.14900
C1555       C  0.45586121  0.68732641  0.76296993    -0.16000
H1556       H  0.45859956  0.64980550  0.80766584     0.09200
H1557       H  0.04094084  0.57763914  0.84727819     0.07000
H1558       H  0.01790042  0.55319123  0.85855497     0.08200
H1559       H  0.03725005  0.56887370  0.88989041     0.07300
H1560       H  0.44001379  0.65840492  0.86580244     0.02200
H1561       H  0.46224666  0.67318457  0.89443834     0.02700
H1562       H  0.43875004  0.65008918  0.90872708     0.06200
H1563       H  0.04527635  0.69108610  0.86762586     0.05100
H1564       H  0.04225891  0.65630673  0.86297535    -0.00600
H1565       H  0.02171663  0.67376611  0.89154999     0.00800
H1566       H  0.45740899  0.66983073  0.74679704     0.04500
H1567       H  0.45816741  0.70477039  0.74757159     0.06400
H1568       H  0.43637170  0.68797505  0.77394730     0.07300
C1569       C  0.96604397  0.88008517  0.85265631    -0.22300
C1570       C  0.48789429  0.86413058  0.84993216     0.09700
C1571       C  0.51074395  0.87204823  0.86562073     0.10100
C1572       C  0.51069574  0.89456231  0.88557496    -0.17200
C1573       C  0.48865664  0.90994327  0.88941082    -0.27600
C1574       C  0.96626783  0.90311287  0.87192453     0.18400
C1575       C  0.48724952  0.84030486  0.82862000     0.12400
C1576       C  0.53541929  0.85724062  0.86052076    -0.12000
H1577       H  0.52808186  0.90044748  0.89793218     0.12700
C1578       C  0.94273284  0.92011524  0.87355213    -0.22800
H1579       H  0.94882816  0.87452418  0.83959127     0.08300
C1580       C  0.98600480  0.81472789  0.84182133     0.04600
C1581       C  0.98938199  0.79293769  0.82077830    -0.20100
C1582       C  0.49375593  0.79622223  0.78684867    -0.12300
C1583       C  0.49267612  0.82179447  0.77342963     0.13300
C1584       C  0.48954046  0.84344621  0.79448013    -0.22800
C1585       C  0.98100977  0.81049668  0.87801841    -0.05800
H1586       H  0.98951100  0.77335762  0.83099481     0.14900
C1587       C  0.49483138  0.82648801  0.73688772    -0.16000
H1588       H  0.48982685  0.86306281  0.78437161     0.09200
H1589       H  0.93603079  0.92214971  0.89939170     0.07000
H1590       H  0.92683821  0.91186673  0.85870599     0.08200
H1591       H  0.94731094  0.93982966  0.86374782     0.07300
H1592       H  0.54047301  0.85712697  0.83391503     0.02200
H1593       H  0.53344513  0.83677932  0.86913400     0.02700
H1594       H  0.55150301  0.86633304  0.87421983     0.06200
H1595       H  0.98032019  0.78935531  0.88424000     0.05100
H1596       H  0.96233072  0.81937972  0.88487673    -0.00600
H1597       H  0.99624747  0.81968941  0.89302895     0.00800
H1598       H  0.49051003  0.84713857  0.73049383     0.04500
H1599       H  0.48109646  0.81381683  0.72347359     0.06400
H1600       H  0.51457790  0.82238681  0.72838761     0.07300
C1601       C  0.36479817  0.73597723  0.65877950    -0.22300
C1602       C  0.38647357  0.75056242  0.64982522     0.09700
C1603       C  0.38610969  0.76556691  0.62072781     0.10100
C1604       C  0.36408584  0.76561428  0.60118201    -0.17200
C1605       C  0.34241172  0.75067641  0.60956420    -0.27600
C1606       C  0.34271035  0.73577865  0.63898543     0.18400
C1607       C  0.40986546  0.74895621  0.67031707     0.12400
C1608       C  0.40920452  0.78098374  0.60975160    -0.12000
H1609       H  0.36398062  0.77711172  0.57875396     0.12700
C1610       C  0.32043099  0.71879416  0.64895618    -0.22800
H1611       H  0.36538718  0.72434404  0.68106819     0.08300
C1612       C  0.41541897  0.76782710  0.69467802     0.04600
C1613       C  0.43872111  0.76637172  0.71183869    -0.20100
C1614       C  0.45634510  0.74617883  0.70557874    -0.12300
C1615       C  0.44996656  0.72641302  0.68238533     0.13300
C1616       C  0.42704147  0.72838349  0.66466028    -0.22800
C1617       C  0.39659817  0.78926307  0.70273163    -0.05800
H1618       H  0.44335827  0.78125695  0.72991753     0.14900
C1619       C  0.46620112  0.70241691  0.67653727    -0.16000
H1620       H  0.42240371  0.71360449  0.64641172     0.09200
H1621       H  0.30335259  0.73113360  0.65386636     0.07000
H1622       H  0.32453323  0.70758143  0.67175561     0.08200
H1623       H  0.31612222  0.70453459  0.62904143     0.07300
H1624       H  0.42570936  0.76759204  0.60607577     0.02200
H1625       H  0.41421955  0.79582605  0.62862173     0.02700
H1626       H  0.40571496  0.79137370  0.58616705     0.06200
H1627       H  0.40395374  0.80253694  0.72221468     0.05100
H1628       H  0.37842021  0.78048032  0.71165024    -0.00600
H1629       H  0.39260897  0.80115953  0.68050662     0.00800
H1630       H  0.45439975  0.68463636  0.68062445     0.04500
H1631       H  0.48276080  0.70099956  0.69336126     0.06400
H1632       H  0.47331926  0.70230994  0.65072508     0.07300
C1633       C  0.08029529  0.76634019  0.66338835    -0.22300
C1634       C  0.10009005  0.74898908  0.67103544     0.09700
C1635       C  0.09757261  0.73288815  0.69894570     0.10100
C1636       C  0.07452389  0.73300633  0.71704419    -0.17200
C1637       C  0.05360422  0.74925491  0.70852023    -0.27600
C1638       C  0.05755381  0.76736094  0.68209773     0.18400
C1639       C  0.12336709  0.74828013  0.64961541     0.12400
C1640       C  0.11957739  0.71610557  0.71025563    -0.12000
H1641       H  0.07370835  0.72079307  0.73858681     0.12700
C1642       C  0.03880248  0.78849752  0.67252438    -0.22800
H1643       H  0.08272221  0.77947344  0.64264390     0.08300
C1644       C  0.12625946  0.72939228  0.62440870     0.04600
C1645       C  0.14812284  0.72997310  0.60403499    -0.20100
C1646       C  0.16717234  0.74917005  0.60786288    -0.12300
C1647       C  0.16389579  0.76846775  0.63271645     0.13300
C1648       C  0.14225737  0.76751761  0.65351263    -0.22800
C1649       C  0.10591485  0.70905868  0.61837490    -0.05800
H1650       H  0.15022980  0.71548773  0.58464680     0.14900
C1651       C  0.18187552  0.79119978  0.63693905    -0.16000
H1652       H  0.13974636  0.78236077  0.67239369     0.09200
H1653       H  0.03223609  0.78512051  0.64687526     0.07000
H1654       H  0.04845367  0.80783277  0.67374088     0.08200
H1655       H  0.02178061  0.78985528  0.68848791     0.07300
H1656       H  0.13627219  0.72873265  0.71597785     0.02200
H1657       H  0.12511104  0.70197018  0.69072989     0.02700
H1658       H  0.11465678  0.70481990  0.73276320     0.06200
H1659       H  0.11093533  0.69608858  0.59731562     0.05100
H1660       H  0.08746743  0.71882484  0.61272671    -0.00600
H1661       H  0.10339296  0.69661741  0.64049494     0.00800
H1662       H  0.17105472  0.80981084  0.63466808     0.04500
H1663       H  0.19726589  0.79165126  0.61815641     0.06400
H1664       H  0.19056950  0.79035417  0.66183361     0.07300
C1665       C  0.22688751  0.57532630  0.66712036    -0.22300
C1666       C  0.25066811  0.58780559  0.66566330     0.09700
C1667       C  0.27171920  0.57654767  0.68203101     0.10100
C1668       C  0.26811847  0.55368741  0.70088211    -0.17200
C1669       C  0.24378763  0.54221686  0.70461365    -0.27600
C1670       C  0.22338314  0.55227259  0.68529576     0.18400
C1671       C  0.25321491  0.61153766  0.64476313     0.12400
C1672       C  0.29785643  0.58883380  0.67978040    -0.12000
H1673       H  0.28434740  0.54510638  0.71310772     0.12700
C1674       C  0.19822225  0.53831329  0.68115129    -0.22800
H1675       H  0.21107601  0.58321437  0.65302395     0.08300
C1676       C  0.25663798  0.60937966  0.61046841     0.04600
C1677       C  0.25711673  0.63207488  0.59117961    -0.20100
C1678       C  0.25426040  0.65734780  0.60502290    -0.12300
C1679       C  0.25099220  0.65936621  0.63976604     0.13300
C1680       C  0.25054830  0.63641033  0.65906153    -0.22800
C1681       C  0.25967509  0.58302413  0.59411102    -0.05800
H1682       H  0.25957323  0.62976251  0.56482805     0.14900
C1683       C  0.24740622  0.68530104  0.65689959    -0.16000
H1684       H  0.24770570  0.63779221  0.68548425     0.09200
H1685       H  0.19383723  0.53635918  0.65449586     0.07000
H1686       H  0.18267788  0.54967528  0.69324391     0.08200
H1687       H  0.19868405  0.51818268  0.69098855     0.07300
H1688       H  0.29713874  0.60905696  0.68980233     0.02200
H1689       H  0.30419915  0.58953462  0.65365031     0.02700
H1690       H  0.31228837  0.57762891  0.69399011     0.06200
H1691       H  0.26244936  0.58479975  0.56704910     0.05100
H1692       H  0.24233283  0.57097142  0.59849682    -0.00600
H1693       H  0.27660088  0.57279476  0.60436666     0.00800
H1694       H  0.24464330  0.68292808  0.68388333     0.04500
H1695       H  0.23019235  0.69533500  0.64710857     0.06400
H1696       H  0.26459778  0.69770049  0.65320476     0.07300
C1697       C  0.25506026  0.85854009  0.66460565    -0.22300
C1698       C  0.26139330  0.88324411  0.65198490     0.09700
C1699       C  0.27041811  0.88520222  0.61936009     0.10100
C1700       C  0.27052760  0.86291205  0.59908723    -0.17200
C1701       C  0.26251146  0.83819458  0.61070052    -0.27600
C1702       C  0.25615788  0.83585431  0.64472520     0.18400
C1703       C  0.25729484  0.90701555  0.67267893     0.12400
C1704       C  0.27989856  0.91090143  0.60590113    -0.12000
H1705       H  0.27678763  0.86501711  0.57374225     0.12700
C1706       C  0.25061503  0.80984237  0.66058246    -0.22800
H1707       H  0.24895480  0.85708958  0.69010096     0.08300
C1708       C  0.23431451  0.92145681  0.67080091     0.04600
C1709       C  0.23098110  0.94370456  0.69080050    -0.20100
C1710       C  0.24994284  0.95187573  0.71306112    -0.12300
C1711       C  0.27306962  0.93740243  0.71473136     0.13300
C1712       C  0.27648349  0.91525249  0.69438434    -0.22800
C1713       C  0.21307352  0.91305259  0.64811011    -0.05800
H1714       H  0.21320289  0.95459602  0.68948587     0.14900
C1715       C  0.29350806  0.94397845  0.73930851    -0.16000
H1716       H  0.29401679  0.90397382  0.69581670     0.09200
H1717       H  0.23423018  0.80031982  0.64836769     0.07000
H1718       H  0.24577337  0.81192893  0.68714279     0.08200
H1719       H  0.26772537  0.79703237  0.65864060     0.07300
H1720       H  0.29619149  0.91793880  0.62100204     0.02200
H1721       H  0.26436481  0.92569748  0.60665045     0.02700
H1722       H  0.28661381  0.90902230  0.57999285     0.06200
H1723       H  0.19629611  0.92634424  0.64983958     0.05100
H1724       H  0.20666262  0.89302095  0.65470945    -0.00600
H1725       H  0.21992198  0.91306960  0.62218912     0.00800
H1726       H  0.30987797  0.93014487  0.73787684     0.04500
H1727       H  0.28526200  0.94255331  0.76436624     0.06400
H1728       H  0.30110744  0.96389392  0.73489886     0.07300
C1729       C  0.35661739  0.61740752  0.51328923    -0.22300
C1730       C  0.38131493  0.62430335  0.50319671     0.09700
C1731       C  0.38666406  0.65025606  0.49402731     0.10100
C1732       C  0.36693010  0.66880276  0.49467186    -0.17200
C1733       C  0.34170277  0.66197141  0.50348311    -0.27600
C1734       C  0.33668325  0.63583807  0.51372185     0.18400
C1735       C  0.40124359  0.60385809  0.50194522     0.12400
C1736       C  0.41320758  0.65833183  0.48353958    -0.12000
H1737       H  0.37133272  0.68875510  0.48798051     0.12700
C1738       C  0.31083860  0.62713584  0.52623898    -0.22800
H1739       H  0.35295088  0.59738491  0.52071840     0.08300
C1740       C  0.41547601  0.59705346  0.53011073     0.04600
C1741       C  0.43413712  0.57743115  0.52759999    -0.20100
C1742       C  0.43889548  0.56478148  0.49749945    -0.12300
C1743       C  0.42481900  0.57182469  0.46920505     0.13300
C1744       C  0.40599018  0.59121727  0.47187190    -0.22800
C1745       C  0.41124757  0.61082078  0.56253026    -0.05800
H1746       H  0.44532384  0.57213223  0.54901882     0.14900
C1747       C  0.42951913  0.55966312  0.43583962    -0.16000
H1748       H  0.39509411  0.59673338  0.45027891     0.09200
H1749       H  0.30474404  0.63990007  0.54701064     0.07000
H1750       H  0.31124103  0.60669268  0.53547582     0.08200
H1751       H  0.29653129  0.62783662  0.50614122     0.07300
H1752       H  0.41917095  0.64694250  0.46147862     0.02200
H1753       H  0.42690811  0.65461215  0.50383756     0.02700
H1754       H  0.41413863  0.67944454  0.47722062     0.06200
H1755       H  0.42413857  0.60320755  0.58198824     0.05100
H1756       H  0.39118112  0.60797846  0.57085094    -0.00600
H1757       H  0.41502447  0.63206949  0.55963652     0.00800
H1758       H  0.41163370  0.55037815  0.42690541     0.04500
H1759       H  0.44468387  0.54449520  0.43607779     0.06400
H1760       H  0.43539522  0.57510891  0.41815344     0.07300
C1761       C  0.10846044  0.59062284  0.45912324    -0.22300
C1762       C  0.11032096  0.60802982  0.48565022     0.09700
C1763       C  0.09189624  0.60761973  0.51111483     0.10100
C1764       C  0.07248486  0.58878053  0.51021438    -0.17200
C1765       C  0.07103683  0.57073877  0.48418555    -0.27600
C1766       C  0.08885815  0.57202657  0.45790679     0.18400
C1767       C  0.13173371  0.62664406  0.48629967     0.12400
C1768       C  0.09284681  0.62695255  0.53919524    -0.12000
H1769       H  0.05863161  0.58775926  0.53013328     0.12700
C1770       C  0.08772849  0.55417437  0.42833217    -0.22800
H1771       H  0.12248408  0.59147356  0.43937535     0.08300
C1772       C  0.15449727  0.62092298  0.50330821     0.04600
C1773       C  0.17366771  0.63998322  0.50508149    -0.20100
C1774       C  0.17054266  0.66448025  0.48999966    -0.12300
C1775       C  0.14820946  0.66949450  0.47121295     0.13300
C1776       C  0.12897771  0.65047494  0.46989345    -0.22800
C1777       C  0.15849871  0.59472853  0.51948092    -0.05800
H1778       H  0.19097210  0.63589649  0.51880034     0.14900
C1779       C  0.14474691  0.69429307  0.45155700    -0.16000
H1780       H  0.11156523  0.65423474  0.45624253     0.09200
H1781       H  0.10548427  0.54226843  0.42699758     0.07000
H1782       H  0.08620311  0.56611392  0.40559125     0.08200
H1783       H  0.07112201  0.54070693  0.42889271     0.07300
H1784       H  0.09163691  0.64718771  0.52941617     0.02200
H1785       H  0.11102390  0.62471307  0.55294717     0.02700
H1786       H  0.07674981  0.62406662  0.55677458     0.06200
H1787       H  0.17747923  0.59346633  0.53160713     0.05100
H1788       H  0.15739658  0.57898384  0.50063887    -0.00600
H1789       H  0.14354336  0.59135935  0.53848654     0.00800
H1790       H  0.12721495  0.69361821  0.43617784     0.04500
H1791       H  0.16134573  0.69708548  0.43475069     0.06400
H1792       H  0.14281839  0.71140035  0.46824370     0.07300
C1793       C  0.10119648  0.90217312  0.52182217    -0.22300
C1794       C  0.11786811  0.90044400  0.49484765     0.09700
C1795       C  0.11430331  0.91656150  0.46712712     0.10100
C1796       C  0.09382475  0.93421675  0.46700409    -0.17200
C1797       C  0.07690414  0.93578353  0.49387281    -0.27600
C1798       C  0.08073327  0.91978235  0.52179991     0.18400
C1799       C  0.13759041  0.87999410  0.49520524     0.12400
C1800       C  0.13189551  0.91485380  0.43768916    -0.12000
H1801       H  0.09082175  0.94674117  0.44583553     0.12700
C1802       C  0.06375780  0.92079582  0.55190284    -0.22800
H1803       H  0.10405909  0.88949444  0.54289446     0.08300
C1804       C  0.16166243  0.88408426  0.50969913     0.04600
C1805       C  0.17921234  0.86339589  0.51042149    -0.20100
C1806       C  0.17304724  0.83864950  0.49731200    -0.12300
C1807       C  0.14872658  0.83483785  0.48256087     0.13300
C1808       C  0.13138613  0.85566583  0.48173433    -0.22800
C1809       C  0.16868825  0.91015261  0.52452518    -0.05800
H1810       H  0.19772193  0.86652113  0.52173236     0.14900
C1811       C  0.14089442  0.80933386  0.46681955    -0.16000
H1812       H  0.11269921  0.85298673  0.47069107     0.09200
H1813       H  0.07553465  0.92514992  0.57396051     0.07000
H1814       H  0.05431442  0.90152475  0.55530955     0.08200
H1815       H  0.04868088  0.93598069  0.55039936     0.07300
H1816       H  0.13117315  0.89484658  0.42702129     0.02200
H1817       H  0.15182306  0.91926049  0.44527613     0.02700
H1818       H  0.12638490  0.92895104  0.41816288     0.06200
H1819       H  0.18842891  0.91006259  0.53459240     0.05100
H1820       H  0.15526803  0.91496793  0.54493732    -0.00600
H1821       H  0.16756384  0.92564050  0.50544730     0.00800
H1822       H  0.12191942  0.81075567  0.45469638     0.04500
H1823       H  0.13938553  0.79377871  0.48576379     0.06400
H1824       H  0.15511230  0.80373560  0.44766319     0.07300
C1825       C  0.38347885  0.85225036  0.47434751    -0.22300
C1826       C  0.38143845  0.87456956  0.49426076     0.09700
C1827       C  0.35925018  0.87858364  0.51353926     0.10100
C1828       C  0.34018011  0.85927486  0.51397475    -0.17200
C1829       C  0.34271544  0.83622927  0.49529091    -0.27600
C1830       C  0.36429629  0.83305190  0.47436737     0.18400
C1831       C  0.40283104  0.89348791  0.49433391     0.12400
C1832       C  0.35553853  0.90336005  0.53321381    -0.12000
H1833       H  0.32335761  0.86202555  0.52933246     0.12700
C1834       C  0.36687815  0.81004128  0.45118638    -0.22800
H1835       H  0.40028594  0.84980794  0.45888458     0.08300
C1836       C  0.42185360  0.89290136  0.51893266     0.04600
C1837       C  0.44173683  0.91135588  0.51800990    -0.20100
C1838       C  0.44325165  0.92991680  0.49263345    -0.12300
C1839       C  0.42468015  0.92975829  0.46730597     0.13300
C1840       C  0.40455719  0.91167715  0.46868519    -0.22800
C1841       C  0.42132931  0.87260487  0.54582477    -0.05800
H1842       H  0.45606107  0.91149157  0.53725867     0.14900
C1843       C  0.42560486  0.94822532  0.43839360    -0.16000
H1844       H  0.39015577  0.91166106  0.44951125     0.09200
H1845       H  0.36898263  0.79161082  0.46529240     0.07000
H1846       H  0.38397970  0.81187499  0.43499825     0.08200
H1847       H  0.34976390  0.80879844  0.43510544     0.07300
H1848       H  0.35587473  0.92047297  0.51641009     0.02200
H1849       H  0.37100756  0.90556576  0.55162587     0.02700
H1850       H  0.33695230  0.90341314  0.54661112     0.06200
H1851       H  0.43785993  0.87469938  0.56274538     0.05100
H1852       H  0.42207905  0.85273651  0.53473793    -0.00600
H1853       H  0.40355169  0.87446235  0.56065373     0.00800
H1854       H  0.42585928  0.93677105  0.41510486     0.04500
H1855       H  0.44278185  0.96092631  0.43831551     0.06400
H1856       H  0.40835795  0.96092306  0.43872561     0.07300
C1857       C  0.08384813  0.72798730  0.33087201    -0.22300
C1858       C  0.10141423  0.74850916  0.32835271     0.09700
C1859       C  0.09641273  0.76913794  0.30640581     0.10100
C1860       C  0.07367459  0.76908090  0.28800023    -0.17200
C1861       C  0.05523468  0.74889491  0.29086691    -0.27600
C1862       C  0.06084554  0.72788816  0.31300749     0.18400
C1863       C  0.12400594  0.74887287  0.35064882     0.12400
C1864       C  0.11488430  0.79162733  0.30290407    -0.12000
H1865       H  0.07075131  0.78541630  0.27186866     0.12700
C1866       C  0.04344691  0.70475337  0.31922031    -0.22800
H1867       H  0.08786692  0.71208009  0.34774171     0.08300
C1868       C  0.12125118  0.75491151  0.38436458     0.04600
C1869       C  0.14295705  0.75539885  0.40459046    -0.20100
C1870       C  0.16777384  0.75001395  0.39229433    -0.12300
C1871       C  0.17030924  0.74348866  0.35833994     0.13300
C1872       C  0.14842385  0.74317823  0.33805320    -0.22800
C1873       C  0.09537005  0.76112824  0.39905078    -0.05800
H1874       H  0.14026645  0.75990004  0.43044249     0.14900
C1875       C  0.19566346  0.73603772  0.34322621    -0.16000
H1876       H  0.15029919  0.73826546  0.31215590     0.09200
H1877       H  0.03919085  0.70340264  0.34599941     0.07000
H1878       H  0.05331564  0.68651880  0.31133584     0.08200
H1879       H  0.02486751  0.70546824  0.30651508     0.07300
H1880       H  0.13362647  0.78431617  0.29378960     0.02200
H1881       H  0.11756111  0.80132467  0.32716026     0.02700
H1882       H  0.10791631  0.80655046  0.28521437     0.06200
H1883       H  0.09668179  0.76618742  0.42562696     0.05100
H1884       H  0.08253075  0.74394019  0.39674026    -0.00600
H1885       H  0.08676297  0.77803655  0.38599812     0.00800
H1886       H  0.19373777  0.73053280  0.31685725     0.04500
H1887       H  0.20375222  0.71892681  0.35640713     0.06400
H1888       H  0.20910259  0.75281074  0.34451554     0.07300
C1889       C  0.39009384  0.73705890  0.37947718    -0.22300
C1890       C  0.38880830  0.75170452  0.35053140     0.09700
C1891       C  0.36580065  0.76465659  0.34244576     0.10100
C1892       C  0.34467656  0.76311127  0.36410139    -0.17200
C1893       C  0.34609488  0.74894030  0.39372259    -0.27600
C1894       C  0.36923192  0.73549986  0.40120593     0.18400
C1895       C  0.41200315  0.75267235  0.32924965     0.12400
C1896       C  0.36353831  0.77991826  0.31091456    -0.12000
H1897       H  0.32718261  0.77345585  0.35818725     0.12700
C1898       C  0.37222402  0.71889112  0.43161070    -0.22800
H1899       H  0.40776869  0.72694664  0.38523164     0.08300
C1900       C  0.43051150  0.77257946  0.33283380     0.04600
C1901       C  0.45315271  0.77147435  0.31400288    -0.20100
C1902       C  0.45821842  0.75037603  0.29263334    -0.12300
C1903       C  0.44000822  0.72998806  0.28998985     0.13300
C1904       C  0.41698103  0.73160769  0.30797681    -0.22800
C1905       C  0.42690941  0.79426620  0.35766460    -0.05800
H1906       H  0.46733851  0.78679991  0.31663133     0.14900
C1907       C  0.44541175  0.70566147  0.27010027    -0.16000
H1908       H  0.40310993  0.71589445  0.30636154     0.09200
H1909       H  0.37228459  0.73138388  0.45400552     0.07000
H1910       H  0.39056666  0.70789048  0.43146979     0.08200
H1911       H  0.35644244  0.70438397  0.43295824     0.07300
H1912       H  0.36687384  0.76671022  0.28956540     0.02200
H1913       H  0.37791495  0.79587282  0.31038167     0.02700
H1914       H  0.34426975  0.78884326  0.30828867     0.06200
H1915       H  0.44322839  0.80818316  0.35741433     0.05100
H1916       H  0.42540048  0.78583547  0.38280199    -0.00600
H1917       H  0.40919874  0.80539345  0.35225511     0.00800
H1918       H  0.43003810  0.69084417  0.27307899     0.04500
H1919       H  0.46363587  0.69667754  0.27837720     0.06400
H1920       H  0.44671041  0.71044587  0.24354379     0.07300
C1921       C  0.25759963  0.90478429  0.29278716    -0.22300
C1922       C  0.25349450  0.90636278  0.32692747     0.09700
C1923       C  0.24682996  0.93071277  0.34113377     0.10100
C1924       C  0.24408379  0.95286609  0.32087887    -0.17200
C1925       C  0.24753339  0.95117364  0.28664318    -0.27600
C1926       C  0.25461920  0.92684502  0.27243754     0.18400
C1927       C  0.25517687  0.88224139  0.34744050     0.12400
C1928       C  0.24183515  0.93305549  0.37760482    -0.12000
H1929       H  0.23832903  0.97139902  0.33165175     0.12700
C1930       C  0.25906343  0.92342647  0.23593821    -0.22800
H1931       H  0.26275342  0.88611604  0.28187408     0.08300
C1932       C  0.23430167  0.86480574  0.35028311     0.04600
C1933       C  0.23577024  0.84360886  0.37229683    -0.20100
C1934       C  0.25758049  0.83952168  0.39170603    -0.12300
C1935       C  0.27875746  0.85662437  0.38826897     0.13300
C1936       C  0.27728538  0.87770227  0.36610201    -0.22800
C1937       C  0.21025224  0.86897090  0.33064399    -0.05800
H1938       H  0.21954478  0.83056833  0.37505730     0.14900
C1939       C  0.30325430  0.85311916  0.40733559    -0.16000
H1940       H  0.29334867  0.89100472  0.36379439     0.09200
H1941       H  0.24530946  0.90886791  0.22604146     0.07000
H1942       H  0.27884442  0.91622222  0.23159616     0.08200
H1943       H  0.25680397  0.94181673  0.22185555     0.07300
H1944       H  0.25935317  0.92774659  0.39145956     0.02200
H1945       H  0.22603923  0.91969042  0.38484185     0.02700
H1946       H  0.23629049  0.95328080  0.38470622     0.06200
H1947       H  0.19557026  0.85388732  0.33621441     0.05100
H1948       H  0.21474626  0.86795606  0.30390843    -0.00600
H1949       H  0.20198196  0.88846204  0.33648878     0.00800
H1950       H  0.31946742  0.85056907  0.38984315     0.04500
H1951       H  0.30298594  0.83583315  0.42376361     0.06400
H1952       H  0.30682158  0.87074949  0.42268490     0.07300
C1953       C  0.27686031  0.61746757  0.37270835    -0.22300
C1954       C  0.25832147  0.61591974  0.34789698     0.09700
C1955       C  0.24196977  0.63759482  0.34267411     0.10100
C1956       C  0.24352813  0.65961669  0.36359116    -0.17200
C1957       C  0.26109101  0.66053944  0.38968268    -0.27600
C1958       C  0.27860008  0.63950583  0.39348786     0.18400
C1959       C  0.25534393  0.59090742  0.32904594     0.12400
C1960       C  0.22287279  0.63747637  0.31498321    -0.12000
H1961       H  0.23032759  0.67575488  0.36031209     0.12700
C1962       C  0.29949921  0.64032845  0.41903750    -0.22800
H1963       H  0.28965215  0.60103152  0.37634447     0.08300
C1964       C  0.27269336  0.58314354  0.30402018     0.04600
C1965       C  0.26818797  0.55984374  0.28619726    -0.20100
C1966       C  0.24683539  0.54399954  0.29299115    -0.12300
C1967       C  0.23040806  0.55100708  0.31943491     0.13300
C1968       C  0.23469927  0.57444350  0.33678427    -0.22800
C1969       C  0.29550449  0.59982468  0.29550164    -0.05800
H1970       H  0.28084230  0.55448020  0.26604447     0.14900
C1971       C  0.20843624  0.53397959  0.33039687    -0.16000
H1972       H  0.22178649  0.57994144  0.35661563     0.09200
H1973       H  0.31106367  0.65839083  0.41591669     0.07000
H1974       H  0.31261484  0.62330078  0.41677002     0.08200
H1975       H  0.29118447  0.63987865  0.44419673     0.07300
H1976       H  0.20902405  0.62124317  0.31835418     0.02200
H1977       H  0.23305450  0.63488059  0.29112140     0.02700
H1978       H  0.21191635  0.65608704  0.31391590     0.06200
H1979       H  0.30674475  0.59135698  0.27477279     0.05100
H1980       H  0.30831878  0.60143487  0.31715731    -0.00600
H1981       H  0.28903979  0.61967805  0.28821431     0.00800
H1982       H  0.21058551  0.52932580  0.35696651     0.04500
H1983       H  0.20756733  0.51511026  0.31694830     0.06400
H1984       H  0.19010421  0.54455698  0.32677705     0.07300
O1985       O  0.75815875  0.20629697  0.40375581    -0.80000
O1986       O  0.75478292  0.20410575  0.59304217    -0.81500
O1987       O  0.79797239  0.17552566  0.50023767    -0.78500
O1988       O  0.71429425  0.17606248  0.49456394    -0.76900
O1989       O  0.68401892  0.20825810  0.49653659    -0.78700
O1990       O  0.82897999  0.20674792  0.50208387    -0.79700
O1991       O  0.75458387  0.17455680  0.55088497    -0.81000
O1992       O  0.75911640  0.17558829  0.44470575    -0.81300
Eu1993     Eu  0.75618697  0.19737085  0.49839109     2.39200
O1994       O  0.73004332  0.22301076  0.53322461    -0.88800
O1995       O  0.78247219  0.22363696  0.46527717    -0.92400
C1996       C  0.75950406  0.18233155  0.41411917     1.02300
C1997       C  0.75447863  0.18032346  0.58180937     1.02100
C1998       C  0.82157395  0.18265722  0.50192286     1.02100
C1999       C  0.69091965  0.18417252  0.49393884     0.99900
H2000       H  0.79200143  0.21170306  0.54727555     0.29700
O2001       O  0.78146417  0.22287944  0.53381173    -1.01200
H2002       H  0.72018791  0.21345623  0.45108751     0.29700
O2003       O  0.73081376  0.22422488  0.46500168    -1.03700
O2004       O  0.75865998  0.29230572  0.59586513    -0.80900
O2005       O  0.75659342  0.29431525  0.40556630    -0.80500
O2006       O  0.82791054  0.25053451  0.55468802    -0.78900
O2007       O  0.68258228  0.24940526  0.55293548    -0.82200
O2008       O  0.68344143  0.25087220  0.44698229    -0.80100
O2009       O  0.82962614  0.24923185  0.44784395    -0.78800
O2010       O  0.79901249  0.32423309  0.49858901    -0.80300
O2011       O  0.71623377  0.32504427  0.49954028    -0.82200
O2012       O  0.82927735  0.29200794  0.49887149    -0.78900
O2013       O  0.68516677  0.29378276  0.49904149    -0.81600
O2014       O  0.79776254  0.24854722  0.59564060    -0.77300
O2015       O  0.80075807  0.25006012  0.40569123    -0.77400
O2016       O  0.71321460  0.25026264  0.40570555    -0.77000
O2017       O  0.71209638  0.24950149  0.59451918    -0.80500
O2018       O  0.75987498  0.32316868  0.55531210    -0.79900
O2019       O  0.75757263  0.32498976  0.44695714    -0.78300
Eu2020     Eu  0.75543220  0.24890081  0.56850047     2.39800
Eu2021     Eu  0.75694898  0.25020380  0.43092736     2.39600
Eu2022     Eu  0.80754117  0.24945838  0.50064126     2.38400
Eu2023     Eu  0.70536790  0.25057878  0.49986043     2.39900
Eu2024     Eu  0.75728410  0.30250851  0.50060805     2.39800
O2025       O  0.73154871  0.27662832  0.46610247    -0.92700
O2026       O  0.78184035  0.27549202  0.53485358    -0.91600
C2027       C  0.76026281  0.31632362  0.58596506     1.02500
C2028       C  0.75720833  0.31818900  0.41627345     1.01200
C2029       C  0.82117982  0.24974010  0.58528231     1.00600
C2030       C  0.68876842  0.24948434  0.58369690     1.02600
C2031       C  0.68970425  0.25042296  0.41622950     1.01500
C2032       C  0.82396017  0.24933634  0.41704646     1.00400
C2033       C  0.82239447  0.31621302  0.49768701     1.00400
C2034       C  0.69265576  0.31778147  0.49863856     1.03000
H2035       H  0.79355739  0.28689486  0.45284379     0.30400
O2036       O  0.78256673  0.27598150  0.46622818    -1.04800
H2037       H  0.71995568  0.28776493  0.54818872     0.32500
O2038       O  0.73064602  0.27666401  0.53463593    -1.07400
N2039       N  0.96887635  0.99817053  0.49390915    -0.36400
N2040       N  0.50922088  0.45978726  0.49334345    -0.57000
N2041       N  0.54658504  0.00193861  0.48803065    -0.36400
N2042       N  0.50612966  0.04025717  0.49156655    -0.57000
C2043       C  0.95565888  0.47629908  0.50166659     0.27100
C2044       C  0.95409254  0.01882959  0.50248610     0.27100
C2045       C  0.56197183  0.48164892  0.49577945     0.27100
C2046       C  0.56023247  0.02404908  0.49293277     0.27100
C2047       C  0.98921741  0.44344646  0.48892376     0.35800
C2048       C  0.53056614  0.44553867  0.48793457     0.35800
C2049       C  0.98452504  0.05434585  0.48785403     0.35800
C2050       C  0.52563698  0.05629014  0.48339658     0.35800
C2051       C  0.93217974  0.48310180  0.51522943    -0.21700
C2052       C  0.93120105  0.00997494  0.51577345    -0.21700
C2053       C  0.58576698  0.49096153  0.50535516    -0.21700
C2054       C  0.58468246  0.01776326  0.50345903    -0.21700
C2055       C  0.99788226  0.41858846  0.48090992    -0.22800
C2056       C  0.52415731  0.41988219  0.48047212    -0.22800
C2057       C  0.99031936  0.07954064  0.47764934    -0.22800
C2058       C  0.51645026  0.08074498  0.47471828    -0.22800
C2059       C  0.96339370  0.45044174  0.49427131    -0.18100
C2060       C  0.95983234  0.04530466  0.49588732    -0.18100
C2061       C  0.55167011  0.04966122  0.48623069    -0.18100
C2062       C  0.55571895  0.45493064  0.49230341    -0.18100
H2063       H  0.91716476  0.47002551  0.52341224     0.14800
H2064       H  0.91523078  0.02166393  0.52437258     0.14800
H2065       H  0.60232140  0.47962141  0.51255744     0.14800
H2066       H  0.60018709  0.03108705  0.50900199     0.14800
H2067       H  0.98651664  0.40124645  0.47648064     0.13100
H2068       H  0.53707151  0.40374157  0.47564348     0.13100
H2069       H  0.97713381  0.09546376  0.47314257     0.13100
H2070       H  0.52743960  0.09775895  0.46751580     0.13100
H2071       H  0.98535044  0.99892329  0.47952311     0.26300
H2072       H  0.52895065  0.00067072  0.47641309     0.26300
O2073       O  0.98759779  0.45532356  0.90458154    -0.80000
O2074       O  0.98889857  0.45194520  0.09400022    -0.81500
O2075       O  0.53297126  0.42512312  0.99722461    -0.78500
O2076       O  0.94936496  0.42240323  0.99825648    -0.76900
O2077       O  0.91760270  0.45299359  0.00006216    -0.78700
O2078       O  0.56284386  0.45754700  0.99712171    -0.79700
O2079       O  0.98849999  0.42203940  0.05186386    -0.81000
O2080       O  0.99053885  0.42387890  0.94465726    -0.81300
Eu2081     Eu  0.99046418  0.44515842  0.99897007     2.39200
O2082       O  0.96446305  0.46999725  0.03441885    -0.88800
O2083       O  0.51489377  0.47292606  0.96533851    -0.92400
C2084       C  0.98890959  0.43121985  0.91432882     1.02300
C2085       C  0.98779211  0.42824245  0.08269394     1.02100
C2086       C  0.55628195  0.43325453  0.99633127     1.02100
C2087       C  0.92564193  0.42917670  0.99868357     0.99900
H2088       H  0.52719072  0.46027189  0.04651957     0.29700
O2089       O  0.51604690  0.47125937  0.03361660    -1.01200
H2090       H  0.95299336  0.46023246  0.95257973     0.29700
O2091       O  0.96365320  0.47121565  0.96619162    -1.03700
O2092       O  0.98979217  0.03956818  0.09727659    -0.80900
O2093       O  0.98809154  0.04385005  0.90793701    -0.80500
O2094       O  0.56272276  0.49943288  0.05247301    -0.78900
O2095       O  0.91700656  0.49412016  0.05642353    -0.82200
O2096       O  0.91633881  0.49702205  0.94803397    -0.80100
O2097       O  0.56121469  0.49722475  0.94527944    -0.78800
O2098       O  0.52790440  0.07349863  0.00248323    -0.80300
O2099       O  0.94449796  0.07022629  0.00347940    -0.82200
O2100       O  0.55974309  0.04293808  0.99977904    -0.78900
O2101       O  0.91487375  0.03751926  0.00191266    -0.81600
O2102       O  0.53312775  0.49789348  0.09432554    -0.77300
O2103       O  0.53086436  0.99769437  0.90465458    -0.77400
O2104       O  0.94547679  0.99961377  0.90598483    -0.77000
O2105       O  0.94739669  0.49535453  0.09688612    -0.80500
O2106       O  0.98865692  0.07105182  0.05711363    -0.79900
O2107       O  0.98598678  0.07368862  0.95011221    -0.78300
Eu2108     Eu  0.98976674  0.49639973  0.06921214     2.39800
Eu2109     Eu  0.98825701  0.49901310  0.93207802     2.39600
Eu2110     Eu  0.54025024  0.49929409  0.99950907     2.38400
Eu2111     Eu  0.93770790  0.49602112  0.00181740     2.39900
Eu2112     Eu  0.98713228  0.05019967  0.00256232     2.39800
O2113       O  0.96207184  0.02378927  0.96802418    -0.92700
O2114       O  0.51413077  0.02409925  0.03489393    -0.91600
C2115       C  0.98981898  0.06364670  0.08745741     1.02500
C2116       C  0.98706681  0.06757901  0.91929042     1.01200
C2117       C  0.55639716  0.49901223  0.08322973     1.00600
C2118       C  0.92390097  0.49433475  0.08699134     1.02600
C2119       C  0.92225525  0.99885390  0.91718344     1.01500
C2120       C  0.55430768  0.99653646  0.91478662     1.00400
C2121       C  0.55162238  0.06677379  0.00103156     1.00400
C2122       C  0.92123397  0.06180481  0.00286471     1.03000
H2123       H  0.52404305  0.03705658  0.95341717     0.30400
O2124       O  0.51360679  0.02560562  0.96677363    -1.04800
H2125       H  0.95162583  0.03313188  0.05050656     0.32500
O2126       O  0.96258168  0.02267017  0.03650144    -1.07400
N2127       N  0.77816074  0.24610464  0.99800673    -0.36400
N2128       N  0.73754149  0.20742994  0.99832302    -0.57000
N2129       N  0.70023089  0.24941045  0.99967844    -0.36400
N2130       N  0.74104065  0.28790344  0.99611482    -0.57000
C2131       C  0.79160958  0.22419605  0.99123691     0.27100
C2132       C  0.79350826  0.26661213  0.99105886     0.27100
C2133       C  0.68480671  0.22859180  0.99444818     0.27100
C2134       C  0.68669163  0.27110042  0.99202291     0.27100
C2135       C  0.75771775  0.19153693  0.00371874     0.35800
C2136       C  0.71641177  0.19324767  0.00516326     0.35800
C2137       C  0.76226604  0.30223473  0.00170458     0.35800
C2138       C  0.72099183  0.30411935  0.00088592     0.35800
C2139       C  0.81585295  0.23083079  0.97995196    -0.21700
C2140       C  0.81705915  0.25768247  0.97987703    -0.21700
C2141       C  0.66104985  0.23715013  0.98382847    -0.21700
C2142       C  0.66225916  0.26399109  0.98221327    -0.21700
C2143       C  0.74940912  0.16702171  0.01360341    -0.22800
C2144       C  0.72316335  0.16810569  0.01452760    -0.22800
C2145       C  0.75570751  0.32775295  0.00975345    -0.22800
C2146       C  0.72948903  0.32897618  0.00909184    -0.22800
C2147       C  0.78345604  0.19849724  0.99812171    -0.18100
C2148       C  0.78746956  0.29304203  0.99721482    -0.18100
C2149       C  0.69520905  0.29718936  0.99575464    -0.18100
C2150       C  0.69110790  0.20220947  0.00094043    -0.18100
H2151       H  0.83128389  0.21768537  0.97326471     0.14800
H2152       H  0.83356465  0.26929350  0.97306262     0.14800
H2153       H  0.64447496  0.22530409  0.97813256     0.14800
H2154       H  0.64678037  0.27683099  0.97504454     0.14800
H2155       H  0.76102978  0.15010707  0.01934289     0.13100
H2156       H  0.71050266  0.15217682  0.02110833     0.13100
H2157       H  0.76847282  0.34387989  0.01507413     0.13100
H2158       H  0.71800782  0.34621990  0.01384815     0.13100
H2159       H  0.76100222  0.24696544  0.01094931     0.26300
H2160       H  0.71780924  0.24899685  0.01147633     0.26300
C2161       C  0.53024515  0.24953844  0.27048153     0.86600
C2162       C  0.52723934  0.22503872  0.24891295    -0.53600
C2163       C  0.00461165  0.22325911  0.23229387     0.09600
C2164       C  0.98699906  0.24721952  0.23783685     0.20500
C2165       C  0.52618804  0.27221423  0.24587552    -0.54300
C2166       C  0.00379100  0.27090616  0.22870110     0.09700
C2167       C  0.00610544  0.25065059  0.29232199    -0.53800
C2168       C  0.98353755  0.24918611  0.27551582     0.10200
H2169       H  0.54186843  0.20996060  0.24739708     0.14800
H2170       H  0.96855976  0.24664048  0.22455401     0.00500
H2171       H  0.53919989  0.28826487  0.24155100     0.15100
H2172       H  0.00686447  0.25228730  0.31899948     0.14900
C2173       C  0.71577695  0.49990693  0.22699910     0.86600
C2174       C  0.71908190  0.47490732  0.24763377    -0.53600
C2175       C  0.74091251  0.47429752  0.26607052     0.09600
C2176       C  0.75800698  0.49879446  0.26187723     0.20500
C2177       C  0.71855730  0.02271280  0.25142215    -0.54300
C2178       C  0.74042590  0.02228492  0.26976506     0.09700
C2179       C  0.74071527  0.50027180  0.20640171    -0.53800
C2180       C  0.76277277  0.50048708  0.22437838     0.10200
H2181       H  0.70556598  0.45877486  0.24729072     0.14800
H2182       H  0.77578043  0.49833224  0.27678399     0.00500
H2183       H  0.70450445  0.03830743  0.25353356     0.15100
H2184       H  0.74140139  0.49873921  0.17978511     0.14900
C2185       C  0.52810151  0.24793652  0.72817400     0.86600
C2186       C  0.52398222  0.27232249  0.74968513    -0.53600
C2187       C  0.00116856  0.27314553  0.76618466     0.09600
C2188       C  0.98443107  0.24860807  0.76060536     0.20500
C2189       C  0.52436883  0.22482584  0.75233545    -0.54300
C2190       C  0.00169653  0.22501683  0.76931176     0.09700
C2191       C  0.00423777  0.24611700  0.70614153    -0.53800
C2192       C  0.98145159  0.24679637  0.72279122     0.10200
H2193       H  0.53812014  0.28781617  0.75157166     0.14800
H2194       H  0.96598171  0.24903888  0.77429586     0.00500
H2195       H  0.53761036  0.20875073  0.75541418     0.15100
H2196       H  0.00526873  0.24475144  0.67944942     0.14900
C2197       C  0.71666174  0.49872616  0.77486031     0.86600
C2198       C  0.71809758  0.02117315  0.74985938    -0.53600
C2199       C  0.73965502  0.02162753  0.73056569     0.09600
C2200       C  0.75892278  0.49967647  0.73949652     0.20500
C2201       C  0.72181458  0.47354432  0.75493872    -0.54300
C2202       C  0.74355929  0.47394000  0.73603403     0.09700
C2203       C  0.74140751  0.50167871  0.79530829    -0.53800
C2204       C  0.76342363  0.50242563  0.77705863     0.10200
H2205       H  0.70307528  0.03577055  0.74798857     0.14800
H2206       H  0.77665938  0.50008214  0.72442404     0.00500
H2207       H  0.70905133  0.45677999  0.75541690     0.15100
H2208       H  0.74225420  0.50141933  0.82195945     0.14900
C2209       C  0.60488692  0.02118968  0.14755455    -0.22300
C2210       C  0.62226480  0.50034276  0.14678884     0.09700
C2211       C  0.61720718  0.47855397  0.12638379     0.10100
C2212       C  0.59521496  0.47848848  0.10651683    -0.17200
C2213       C  0.57781377  0.49944441  0.10706809    -0.27600
C2214       C  0.58268234  0.02102158  0.12805232     0.18400
C2215       C  0.64576225  0.50173469  0.16732804     0.12400
C2216       C  0.63500007  0.45536327  0.12565551    -0.12000
H2217       H  0.59160414  0.46201339  0.09030262     0.12700
C2218       C  0.56556350  0.04466783  0.12962934    -0.22800
H2219       H  0.60886482  0.03793851  0.16316836     0.08300
C2220       C  0.66898205  0.51146904  0.15465160     0.04600
C2221       C  0.69097229  0.51115651  0.17446417    -0.20100
C2222       C  0.69059899  0.50150579  0.20715425    -0.12300
C2223       C  0.66621333  0.99490545  0.22085856     0.13300
C2224       C  0.64455262  0.99397032  0.20035081    -0.22800
C2225       C  0.67044144  0.52274972  0.12038709    -0.05800
H2226       H  0.70820653  0.51951909  0.16424914     0.14900
C2227       C  0.66160339  0.98971414  0.25699026    -0.16000
H2228       H  0.62629191  0.98782413  0.21049662     0.09200
H2229       H  0.57679523  0.06216037  0.12237435     0.07000
H2230       H  0.55847235  0.04740748  0.15523934     0.08200
H2231       H  0.54877568  0.04321750  0.11317323     0.07300
H2232       H  0.63637036  0.44680522  0.15071546     0.02200
H2233       H  0.65433797  0.46154412  0.11739745     0.02700
H2234       H  0.62813543  0.43988426  0.10858188     0.06200
H2235       H  0.69006210  0.52955960  0.11418819     0.05100
H2236       H  0.65728552  0.53974751  0.11850234    -0.00600
H2237       H  0.66484635  0.50776548  0.10195452     0.00800
H2238       H  0.64588445  0.00254405  0.26599790     0.04500
H2239       H  0.67825538  0.99398426  0.27276357     0.06400
H2240       H  0.65583232  0.96899942  0.26049405     0.07300
C2241       C  0.88062207  0.00762185  0.16167903    -0.22300
C2242       C  0.85949201  0.49185817  0.15411030     0.09700
C2243       C  0.86027876  0.47597315  0.12565622     0.10100
C2244       C  0.88191155  0.47664563  0.10503612    -0.17200
C2245       C  0.90293274  0.49289315  0.11196541    -0.27600
C2246       C  0.90236891  0.00836037  0.14100283     0.18400
C2247       C  0.83559644  0.49453852  0.17392037     0.12400
C2248       C  0.83799638  0.45875360  0.11659039    -0.12000
H2249       H  0.88223115  0.46466071  0.08295453     0.12700
C2250       C  0.92386278  0.02679145  0.14939078    -0.22800
H2251       H  0.87971737  0.02006085  0.18332906     0.08300
C2252       C  0.83029226  0.47881259  0.20168500     0.04600
C2253       C  0.80682773  0.48187579  0.21856385    -0.20100
C2254       C  0.78855789  0.50034121  0.20828818    -0.12300
C2255       C  0.79451204  0.01672147  0.18110417     0.13300
C2256       C  0.81766049  0.01321116  0.16404517    -0.22800
C2257       C  0.84919326  0.45856099  0.21307505    -0.05800
H2258       H  0.80240192  0.46920255  0.23919347     0.14900
C2259       C  0.77741537  0.03867743  0.16966130    -0.16000
H2260       H  0.82191372  0.02542489  0.14288855     0.09200
H2261       H  0.94169586  0.01560299  0.15395884     0.07000
H2262       H  0.91959617  0.03844598  0.17190207     0.08200
H2263       H  0.92690170  0.04059209  0.12867607     0.07300
H2264       H  0.82063755  0.47089256  0.11281376     0.02200
H2265       H  0.83428935  0.44447240  0.13660229     0.02700
H2266       H  0.84174576  0.44762692  0.09354301     0.06200
H2267       H  0.84207337  0.44783103  0.23505174     0.05100
H2268       H  0.86752406  0.46818892  0.21963777    -0.00600
H2269       H  0.85274394  0.44411166  0.19311640     0.00800
H2270       H  0.78873203  0.05699863  0.16773479     0.04500
H2271       H  0.76144616  0.04293835  0.18685177     0.06400
H2272       H  0.76957112  0.03384537  0.14498499     0.07300
C2273       C  0.46743543  0.36447700  0.12380769    -0.22300
C2274       C  0.98571989  0.36225694  0.14878505     0.09700
C2275       C  0.00324501  0.38294591  0.15391544     0.10100
C2276       C  0.00297166  0.40473891  0.13276248    -0.17200
C2277       C  0.98560611  0.40630095  0.10653428    -0.27600
C2278       C  0.46701171  0.38630852  0.10276086     0.18400
C2279       C  0.98787902  0.33721367  0.16724150     0.12400
C2280       C  0.02227476  0.38196616  0.18169981    -0.12000
H2281       H  0.01692814  0.42020427  0.13603527     0.12700
C2282       C  0.44633192  0.38810311  0.07702444    -0.22800
H2283       H  0.45386887  0.34869856  0.12020480     0.08300
C2284       C  0.97060152  0.32999066  0.19252387     0.04600
C2285       C  0.97517205  0.30700878  0.21073381    -0.20100
C2286       C  0.99678719  0.29140246  0.20443728    -0.12300
C2287       C  0.51318597  0.29792680  0.17778841     0.13300
C2288       C  0.50839530  0.32061519  0.15951748    -0.22800
C2289       C  0.94803556  0.34702995  0.20114374    -0.05800
H2290       H  0.96264322  0.30199191  0.23112675     0.14900
C2291       C  0.53609454  0.28166562  0.16799171    -0.16000
H2292       H  0.52125372  0.32583717  0.13953631     0.09200
H2293       H  0.93564602  0.40674009  0.08001025     0.07000
H2294       H  0.43239334  0.37178423  0.07917259     0.08200
H2295       H  0.45479840  0.38715307  0.05195545     0.07300
H2296       H  0.53540723  0.36505572  0.17838278     0.02200
H2297       H  0.01194596  0.37997863  0.20553693     0.02700
H2298       H  0.03410581  0.39999322  0.18279078     0.06200
H2299       H  0.93678919  0.33883310  0.22199193     0.05100
H2300       H  0.93515199  0.34870306  0.17957452    -0.00600
H2301       H  0.95478557  0.36682549  0.20832994     0.00800
H2302       H  0.53421826  0.27559339  0.14181420     0.04500
H2303       H  0.53824352  0.26365224  0.18283599     0.06400
H2304       H  0.55377703  0.29350002  0.17069933     0.07300
C2305       C  0.51362304  0.12327207  0.13410913    -0.22300
C2306       C  0.99297056  0.12836528  0.15527165     0.09700
C2307       C  0.97155414  0.11152640  0.15504167     0.10100
C2308       C  0.97155425  0.08957424  0.13397624    -0.17200
C2309       C  0.99209556  0.08469412  0.11236868    -0.27600
C2310       C  0.51336865  0.10188159  0.11240439     0.18400
C2311       C  0.99383833  0.15227593  0.17608902     0.12400
C2312       C  0.94831099  0.11743440  0.17587047    -0.12000
H2313       H  0.95497319  0.07692416  0.13323979     0.12700
C2314       C  0.53596708  0.09860117  0.08951263    -0.22800
H2315       H  0.52992405  0.13640235  0.13413314     0.08300
C2316       C  0.50206050  0.15145290  0.20910135     0.04600
C2317       C  0.50353264  0.17480989  0.22724119    -0.20100
C2318       C  0.99832143  0.19927418  0.21277635    -0.12300
C2319       C  0.99041097  0.20002762  0.17942729     0.13300
C2320       C  0.98799897  0.17645777  0.16169439    -0.22800
C2321       C  0.51060151  0.12617329  0.22465256    -0.05800
H2322       H  0.50980510  0.17407438  0.25265927     0.14900
C2323       C  0.98607972  0.22541097  0.16155206    -0.16000
H2324       H  0.98224422  0.17689173  0.13606038     0.09200
H2325       H  0.55389197  0.09854285  0.10403628     0.07000
H2326       H  0.53670373  0.11530008  0.07208498     0.08200
H2327       H  0.53538282  0.08020718  0.07503795     0.07300
H2328       H  0.94055373  0.13694139  0.16918838     0.02200
H2329       H  0.95343854  0.11752991  0.20235639     0.02700
H2330       H  0.93296778  0.10270019  0.17215598     0.06200
H2331       H  0.51690868  0.12911043  0.25051048     0.05100
H2332       H  0.52696071  0.11795303  0.21046322    -0.00600
H2333       H  0.49473611  0.11178957  0.22475470     0.00800
H2334       H  0.98244000  0.22220419  0.13489657     0.04500
H2335       H  0.00327415  0.23790557  0.16364814     0.06400
H2336       H  0.96918952  0.23571895  0.17176624     0.07300
C2337       C  0.65534113  0.35541850  0.96818165    -0.22300
C2338       C  0.63864476  0.35799895  0.99505776     0.09700
C2339       C  0.64046640  0.34071879  0.02197360     0.10100
C2340       C  0.65927789  0.32122476  0.02157169    -0.17200
C2341       C  0.67590223  0.31841600  0.99459551    -0.27600
C2342       C  0.67385963  0.33559419  0.96741474     0.18400
C2343       C  0.61829368  0.37789762  0.99380680     0.12400
C2344       C  0.62239501  0.34274993  0.05090037    -0.12000
H2345       H  0.66092851  0.30791059  0.04222039     0.12700
C2346       C  0.69038968  0.33318781  0.93702842    -0.22800
H2347       H  0.65353161  0.36860120  0.94741015     0.08300
C2348       C  0.62228084  0.40360122  0.00511594     0.04600
C2349       C  0.60171459  0.42116376  0.00542962    -0.20100
C2350       C  0.57717247  0.41357747  0.99477893    -0.12300
C2351       C  0.57352529  0.38771623  0.98270219     0.13300
C2352       C  0.59423709  0.37032212  0.98233267    -0.22800
C2353       C  0.64812851  0.41234901  0.01719160    -0.05800
H2354       H  0.60482597  0.44082876  0.01462273     0.14900
C2355       C  0.54821299  0.37810019  0.96972932    -0.16000
H2356       H  0.59160990  0.35043950  0.97359194     0.09200
H2357       H  0.70174607  0.35136683  0.93381447     0.07000
H2358       H  0.67802968  0.33041764  0.91509589     0.08200
H2359       H  0.70381467  0.31642725  0.93801784     0.07300
H2360       H  0.60241411  0.33977446  0.04248663     0.02200
H2361       H  0.62406170  0.36238689  0.06244176     0.02700
H2362       H  0.62661615  0.32780814  0.06995874     0.06200
H2363       H  0.64790530  0.43312265  0.02531581     0.05100
H2364       H  0.66245890  0.41032540  0.99706993    -0.00600
H2365       H  0.65407290  0.40013306  0.03841604     0.00800
H2366       H  0.54969773  0.35813785  0.95899475     0.04500
H2367       H  0.54143057  0.39137074  0.95009675     0.06400
H2368       H  0.53390363  0.37722947  0.98997655     0.07300
C2369       C  0.89001097  0.36571278  0.98140606    -0.22300
C2370       C  0.86689174  0.37073406  0.99766655     0.09700
C2371       C  0.86301031  0.39467384  0.01411438     0.10100
C2372       C  0.88263800  0.41323835  0.01409950    -0.17200
C2373       C  0.90605362  0.40836366  0.99800223    -0.27600
C2374       C  0.90975820  0.38422292  0.98126419     0.18400
C2375       C  0.84685864  0.35060455  0.99693148     0.12400
C2376       C  0.83808933  0.40067074  0.03136599    -0.12000
H2377       H  0.87969792  0.43161829  0.02696524     0.12700
C2378       C  0.93396158  0.37790652  0.96245888    -0.22800
H2379       H  0.89251304  0.34719168  0.96870252     0.08300
C2380       C  0.83004689  0.34845366  0.97001927     0.04600
C2381       C  0.81102336  0.32922626  0.97064530    -0.20100
C2382       C  0.80856149  0.31229617  0.99760999    -0.12300
C2383       C  0.82571109  0.31424349  0.02439145     0.13300
C2384       C  0.84471064  0.33349597  0.02367282    -0.22800
C2385       C  0.83205383  0.36662382  0.94094121    -0.05800
H2386       H  0.79784098  0.32746170  0.95019574     0.14900
C2387       C  0.82435882  0.29668113  0.05415752    -0.16000
H2388       H  0.85784310  0.33532689  0.04418472     0.09200
H2389       H  0.93791651  0.39341576  0.94410143     0.07000
H2390       H  0.93246312  0.35904162  0.94894721     0.08200
H2391       H  0.95031085  0.37620056  0.97967784     0.07300
H2392       H  0.83466387  0.38620183  0.05126116     0.02200
H2393       H  0.82211274  0.39975274  0.01344552     0.02700
H2394       H  0.83814955  0.42050331  0.04258317     0.06200
H2395       H  0.81722718  0.36235107  0.92214632     0.05100
H2396       H  0.85112381  0.36447696  0.92908170    -0.00600
H2397       H  0.82954313  0.38717620  0.94927384     0.00800
H2398       H  0.84268919  0.28586900  0.05665711     0.04500
H2399       H  0.80867589  0.28215091  0.05286329     0.06400
H2400       H  0.82126727  0.30874706  0.07661428     0.07300
C2401       C  0.85732183  0.09630638  0.01535379    -0.22300
C2402       C  0.86246514  0.12036755  0.00044050     0.09700
C2403       C  0.88689631  0.12557304  0.98732412     0.10100
C2404       C  0.90555434  0.10595040  0.98817554    -0.17200
C2405       C  0.90050374  0.08150993  0.00268957    -0.27600
C2406       C  0.87609483  0.07679032  0.01701432     0.18400
C2407       C  0.84200494  0.14007208  0.99951258     0.12400
C2408       C  0.89335950  0.15196480  0.97303447    -0.12000
H2409       H  0.92420649  0.10977160  0.97743233     0.12700
C2410       C  0.86981260  0.05185000  0.03519529    -0.22800
H2411       H  0.83851924  0.09290982  0.02591189     0.08300
C2412       C  0.82543110  0.14203263  0.97230076     0.04600
C2413       C  0.80615487  0.16105922  0.97270804    -0.20100
C2414       C  0.80322454  0.17789797  0.99976865    -0.12300
C2415       C  0.81979000  0.17578937  0.02709893     0.13300
C2416       C  0.83904864  0.15680775  0.02658539    -0.22800
C2417       C  0.82810450  0.12405349  0.94300638    -0.05800
H2418       H  0.79344759  0.16302118  0.95180219     0.14900
C2419       C  0.81769039  0.19317768  0.05706458    -0.16000
H2420       H  0.85187929  0.15503325  0.04740885     0.09200
H2421       H  0.86953554  0.03504721  0.01784707     0.07000
H2422       H  0.85066500  0.05278596  0.04713983     0.08200
H2423       H  0.88415147  0.04839165  0.05485310     0.07300
H2424       H  0.89101226  0.16726478  0.99228630     0.02200
H2425       H  0.88049134  0.15644563  0.95211157     0.02700
H2426       H  0.91341187  0.15273632  0.96391590     0.06200
H2427       H  0.81362975  0.12839693  0.92380333     0.05100
H2428       H  0.82553075  0.10344803  0.95095913    -0.00600
H2429       H  0.84736655  0.12627970  0.93175048     0.00800
H2430       H  0.81489585  0.18092534  0.07935326     0.04500
H2431       H  0.80147616  0.20711572  0.05582504     0.06400
H2432       H  0.83561339  0.20462516  0.05983595     0.07300
C2433       C  0.58747752  0.13032960  0.98487676    -0.22300
C2434       C  0.61031855  0.12543123  0.00167544     0.09700
C2435       C  0.61371868  0.10161537  0.01850374     0.10100
C2436       C  0.59406971  0.08302721  0.01808220    -0.17200
C2437       C  0.57110275  0.08771277  0.00120124    -0.27600
C2438       C  0.56774548  0.11173356  0.98428507     0.18400
C2439       C  0.63071125  0.14534428  0.00084995     0.12400
C2440       C  0.63820032  0.09572021  0.03653646    -0.12000
H2441       H  0.59664675  0.06471544  0.03110312     0.12700
C2442       C  0.54403031  0.11758626  0.96449736    -0.22800
H2443       H  0.58525658  0.14870712  0.97189555     0.08300
C2444       C  0.64799823  0.14686919  0.97415965     0.04600
C2445       C  0.66755351  0.16559673  0.97492359    -0.20100
C2446       C  0.67011796  0.18270184  0.00179611    -0.12300
C2447       C  0.65271546  0.18116044  0.02851672     0.13300
C2448       C  0.63307992  0.16253835  0.02757132    -0.22800
C2449       C  0.64585987  0.12863189  0.94508175    -0.05800
H2450       H  0.68094168  0.16696201  0.95451843     0.14900
C2451       C  0.65452178  0.19849780  0.05851210    -0.16000
H2452       H  0.61970896  0.16116197  0.04800797     0.09200
H2453       H  0.54563302  0.13648840  0.95117656     0.07000
H2454       H  0.52711506  0.11899760  0.98101924     0.08200
H2455       H  0.54093931  0.10195601  0.94587283     0.07300
H2456       H  0.64118856  0.11039451  0.05635641     0.02200
H2457       H  0.65460142  0.09640802  0.01907560     0.02700
H2458       H  0.63780569  0.07601204  0.04802566     0.06200
H2459       H  0.66110857  0.13230748  0.92651263     0.05100
H2460       H  0.62705610  0.13137551  0.93292696    -0.00600
H2461       H  0.64756747  0.10804342  0.95347288     0.00800
H2462       H  0.63686545  0.21048522  0.06069840     0.04500
H2463       H  0.67116361  0.21190929  0.05777719     0.06400
H2464       H  0.65638544  0.18617892  0.08088554     0.07300
C2465       C  0.85624444  0.01063430  0.87979107    -0.22300
C2466       C  0.85919311  0.49992735  0.84841350     0.09700
C2467       C  0.88333182  0.49032727  0.83848453     0.10100
C2468       C  0.90368689  0.49026654  0.86120983    -0.17200
C2469       C  0.90058544  0.00027169  0.89332374    -0.27600
C2470       C  0.87659052  0.01149945  0.90218483     0.18400
C2471       C  0.83631723  0.49899796  0.82685037     0.12400
C2472       C  0.88760096  0.48065123  0.80382523    -0.12000
H2473       H  0.92201676  0.48218565  0.85385900     0.12700
C2474       C  0.87229655  0.02554120  0.93453867    -0.22800
H2475       H  0.83772745  0.01849239  0.88684046     0.08300
C2476       C  0.81898964  0.47786396  0.82832988     0.04600
C2477       C  0.79548948  0.47965976  0.81179351    -0.20100
C2478       C  0.78901217  0.50184876  0.79320030    -0.12300
C2479       C  0.80615426  0.02337402  0.79262965     0.13300
C2480       C  0.82982134  0.02140687  0.80878895    -0.22800
C2481       C  0.82507531  0.45366266  0.84794479    -0.05800
H2482       H  0.78180677  0.46383253  0.81395975     0.14900
C2483       C  0.79931492  0.04939098  0.77792040    -0.16000
H2484       H  0.84267643  0.03805994  0.80895716     0.09200
H2485       H  0.87254865  0.01147373  0.95530354     0.07000
H2486       H  0.85345530  0.03560340  0.93533488     0.08200
H2487       H  0.88727268  0.04069974  0.93805659     0.07300
H2488       H  0.88365593  0.49673094  0.78618334     0.02200
H2489       H  0.87459943  0.46402885  0.79848423     0.02700
H2490       H  0.90761927  0.47398520  0.79990008     0.06200
H2491       H  0.80948630  0.43894470  0.84639884     0.05100
H2492       H  0.82778979  0.45886957  0.87427485    -0.00600
H2493       H  0.84287439  0.44451578  0.83832250     0.00800
H2494       H  0.80123633  0.06490915  0.79694784     0.04500
H2495       H  0.77930223  0.05006415  0.76917723     0.06400
H2496       H  0.81261745  0.05386940  0.75729179     0.07300
C2497       C  0.61527005  0.47524051  0.87082154    -0.22300
C2498       C  0.61942599  0.99629313  0.84947235     0.09700
C2499       C  0.60059673  0.01606726  0.84719653     0.10100
C2500       C  0.57863863  0.01482678  0.86737804    -0.17200
C2501       C  0.57518062  0.99441906  0.89003473    -0.27600
C2502       C  0.59332297  0.47390700  0.89092093     0.18400
C2503       C  0.64396112  0.99769325  0.83059632     0.12400
C2504       C  0.60414306  0.03897353  0.82437706    -0.12000
H2505       H  0.56469846  0.03047984  0.86655337     0.12700
C2506       C  0.58998637  0.45005627  0.91237800    -0.22800
H2507       H  0.62943880  0.45976584  0.87205542     0.08300
C2508       C  0.66664189  0.00680577  0.84529334     0.04600
C2509       C  0.68959183  0.00704457  0.82700660    -0.20100
C2510       C  0.69075953  0.49864964  0.79378354    -0.12300
C2511       C  0.66704354  0.49164280  0.77849410     0.13300
C2512       C  0.64440718  0.49046805  0.79741873    -0.22800
C2513       C  0.66646119  0.01697805  0.88019463    -0.05800
H2514       H  0.70627039  0.01491810  0.83896076     0.14900
C2515       C  0.66402161  0.48576994  0.74224126    -0.16000
H2516       H  0.62670598  0.48430319  0.78588962     0.09200
H2517       H  0.60579746  0.44901034  0.93053082     0.07000
H2518       H  0.59048373  0.43218861  0.89675376     0.08200
H2519       H  0.57153190  0.44990685  0.92592179     0.07300
H2520       H  0.60572815  0.03194493  0.79854842     0.02200
H2521       H  0.62183758  0.04974847  0.83102460     0.02700
H2522       H  0.58778681  0.05282750  0.82585980     0.06200
H2523       H  0.68569376  0.02376098  0.88802339     0.05100
H2524       H  0.66023669  0.00130884  0.89733298    -0.00600
H2525       H  0.65304099  0.03376920  0.88221433     0.00800
H2526       H  0.65769965  0.46518992  0.73897465     0.04500
H2527       H  0.68146693  0.48875652  0.72749000     0.06400
H2528       H  0.64924130  0.49892902  0.73173439     0.00900
C2529       C  0.50727761  0.11525482  0.85173994    -0.22300
C2530       C  0.98977375  0.13577457  0.85672335     0.09700
C2531       C  0.97078260  0.13324488  0.88137555     0.10100
C2532       C  0.96988442  0.11041006  0.90063487    -0.17200
C2533       C  0.98744502  0.08987587  0.89581846    -0.27600
C2534       C  0.50650649  0.09245562  0.87115857     0.18400
C2535       C  0.99182857  0.15978302  0.83601615     0.12400
C2536       C  0.95188493  0.15492346  0.88796451    -0.12000
H2537       H  0.95552943  0.10867498  0.91987976     0.12700
C2538       C  0.52684680  0.07188572  0.86640549    -0.22800
H2539       H  0.52187576  0.11730735  0.83286764     0.08300
C2540       C  0.51167719  0.17817168  0.84044748     0.04600
C2541       C  0.51328256  0.19998874  0.81945004    -0.20100
C2542       C  0.99570802  0.20393248  0.79376020    -0.12300
C2543       C  0.97547585  0.18563537  0.78983870     0.13300
C2544       C  0.97382946  0.16395407  0.81106016    -0.22800
C2545       C  0.53129537  0.17471871  0.86719774    -0.05800
H2546       H  0.52887341  0.21376482  0.82249239     0.14900
C2547       C  0.95591204  0.18727516  0.76288113    -0.16000
H2548       H  0.95865126  0.14975578  0.80758093     0.09200
H2549       H  0.54100814  0.07763837  0.84726337     0.07000
H2550       H  0.51797548  0.05318106  0.85853389     0.08200
H2551       H  0.53730792  0.06887662  0.88987541     0.07300
H2552       H  0.94004675  0.15838885  0.86575785     0.02200
H2553       H  0.96228131  0.17316703  0.89439269     0.02700
H2554       H  0.93878299  0.15007434  0.90868397     0.06200
H2555       H  0.54517728  0.19116609  0.86771534     0.05100
H2556       H  0.54222921  0.15637970  0.86305546    -0.00600
H2557       H  0.52160818  0.17380105  0.89157255     0.00800
H2558       H  0.95749743  0.16978815  0.74669914     0.04500
H2559       H  0.95820549  0.20472963  0.74749797     0.06400
H2560       H  0.93641298  0.18789080  0.77383300     0.07300
C2561       C  0.46604519  0.38008088  0.85265898    -0.22300
C2562       C  0.98787807  0.36412732  0.84993101     0.09700
C2563       C  0.01072488  0.37205067  0.86562322     0.10100
C2564       C  0.01067205  0.39456604  0.88557793    -0.17200
C2565       C  0.98863423  0.40995120  0.88940345    -0.27600
C2566       C  0.46626918  0.40311425  0.87191913     0.18400
C2567       C  0.98723873  0.34029778  0.82861739     0.12400
C2568       C  0.03540483  0.35725227  0.86051909    -0.12000
H2569       H  0.02805603  0.40045205  0.89793885     0.12700
C2570       C  0.44274010  0.42012410  0.87352351    -0.22800
H2571       H  0.44883035  0.37451954  0.83959209     0.08300
C2572       C  0.48601846  0.31471561  0.84182241     0.04600
C2573       C  0.48938961  0.29292628  0.82077283    -0.20100
C2574       C  0.99375127  0.29621448  0.78683672    -0.12300
C2575       C  0.99265486  0.32178762  0.77342190     0.13300
C2576       C  0.98951575  0.34343847  0.79447537    -0.22800
C2577       C  0.48103614  0.31048005  0.87802143    -0.05800
H2578       H  0.48952919  0.27334565  0.83098729     0.14900
C2579       C  0.99479970  0.32648357  0.73688020    -0.16000
H2580       H  0.98978909  0.36305499  0.78436621     0.09200
H2581       H  0.43603366  0.42217842  0.89935879     0.07000
H2582       H  0.42684556  0.41187388  0.85867866     0.08200
H2583       H  0.44733225  0.43982814  0.86370021     0.07300
H2584       H  0.04045255  0.35713578  0.83391145     0.02200
H2585       H  0.03344150  0.33679191  0.86913918     0.02700
H2586       H  0.05148814  0.36635481  0.87420834     0.06200
H2587       H  0.48035678  0.28933799  0.88424109     0.05100
H2588       H  0.46235537  0.31935475  0.88488930    -0.00600
H2589       H  0.49627391  0.31967823  0.89302626     0.00800
H2590       H  0.99045608  0.34712947  0.73048763     0.04500
H2591       H  0.98107624  0.31379764  0.72346844     0.06400
H2592       H  0.01455006  0.32240352  0.72837861     0.07300
C2593       C  0.86482411  0.23596672  0.65868314    -0.22300
C2594       C  0.88649786  0.25055463  0.64972915     0.09700
C2595       C  0.88612431  0.26557537  0.62064505     0.10100
C2596       C  0.86409163  0.26563743  0.60111426    -0.17200
C2597       C  0.84241885  0.25069667  0.60949677    -0.27600
C2598       C  0.84272854  0.23578174  0.63890320     0.18400
C2599       C  0.90988938  0.24895023  0.67022397     0.12400
C2600       C  0.90921704  0.28099481  0.60966776    -0.12000
H2601       H  0.86397874  0.27714693  0.57869610     0.12700
C2602       C  0.82045125  0.21879455  0.64887257    -0.22800
H2603       H  0.86541940  0.22432266  0.68096246     0.08300
C2604       C  0.91542265  0.26780597  0.69461140     0.04600
C2605       C  0.93871309  0.26634519  0.71179794    -0.20100
C2606       C  0.95634688  0.24616202  0.70553660    -0.12300
C2607       C  0.94998976  0.22641119  0.68231127     0.13300
C2608       C  0.92707597  0.22838754  0.66456167    -0.22800
C2609       C  0.89659280  0.28923377  0.70266322    -0.05800
H2610       H  0.94333494  0.28122107  0.72989552     0.14900
C2611       C  0.96623570  0.20242449  0.67645193    -0.16000
H2612       H  0.92245402  0.21361936  0.64629249     0.09200
H2613       H  0.80337636  0.23113415  0.65380279     0.07000
H2614       H  0.82456045  0.20756906  0.67165989     0.08200
H2615       H  0.81613363  0.20454630  0.62894823     0.07300
H2616       H  0.92571724  0.26760167  0.60596469     0.02200
H2617       H  0.91424411  0.29582291  0.62855036     0.02700
H2618       H  0.90571842  0.29140165  0.58609723     0.06200
H2619       H  0.90393139  0.30249616  0.72216923     0.05100
H2620       H  0.87840912  0.28044283  0.71154933    -0.00600
H2621       H  0.89261995  0.30114371  0.68044458     0.00800
H2622       H  0.95443639  0.18463684  0.68049967     0.04500
H2623       H  0.98278213  0.20099740  0.69329623     0.06400
H2624       H  0.97337435  0.20234148  0.65064890     0.07300
C2625       C  0.58026545  0.26639204  0.66334922    -0.22300
C2626       C  0.60006025  0.24902937  0.67095269     0.09700
C2627       C  0.59755035  0.23289648  0.69883515     0.10100
C2628       C  0.57451024  0.23300107  0.71695312    -0.17200
C2629       C  0.55359335  0.24927024  0.70847971    -0.27600
C2630       C  0.55753242  0.26739766  0.68207691     0.18400
C2631       C  0.62332904  0.24833652  0.64951582     0.12400
C2632       C  0.61955565  0.21609289  0.71009492    -0.12000
H2633       H  0.57369928  0.22075689  0.73846753     0.12700
C2634       C  0.53877499  0.28853864  0.67253730    -0.22800
H2635       H  0.58268418  0.27954402  0.64262212     0.08300
C2636       C  0.62621382  0.22946330  0.62429063     0.04600
C2637       C  0.64808542  0.23003722  0.60393183    -0.20100
C2638       C  0.66714799  0.24921803  0.60778467    -0.12300
C2639       C  0.66387053  0.26851328  0.63264144     0.13300
C2640       C  0.64222643  0.26756528  0.65342937    -0.22800
C2641       C  0.60585222  0.20915418  0.61821993    -0.05800
H2642       H  0.65018836  0.21555919  0.58453421     0.14900
C2643       C  0.68185424  0.29124140  0.63687442    -0.16000
H2644       H  0.63971852  0.28240150  0.67231967     0.09200
H2645       H  0.53220843  0.28518421  0.64688363     0.07000
H2646       H  0.54842098  0.30787536  0.67378280     0.08200
H2647       H  0.52175138  0.28987523  0.68849947     0.07300
H2648       H  0.63625718  0.22870784  0.71582700     0.02200
H2649       H  0.62507553  0.20197905  0.69053794     0.02700
H2650       H  0.61464294  0.20478188  0.73258494     0.06200
H2651       H  0.61087047  0.19619196  0.59715205     0.05100
H2652       H  0.58741783  0.21894370  0.61256502    -0.00600
H2653       H  0.60330543  0.19670179  0.64032532     0.00800
H2654       H  0.67103796  0.30985458  0.63459425     0.04500
H2655       H  0.69725275  0.29168860  0.61810259     0.06400
H2656       H  0.69053875  0.29039625  0.66177449     0.07300
C2657       C  0.72693052  0.07530610  0.66704687    -0.22300
C2658       C  0.75067026  0.08787904  0.66572002     0.09700
C2659       C  0.77170100  0.07671929  0.68223791     0.10100
C2660       C  0.76811694  0.05385652  0.70109016    -0.17200
C2661       C  0.74382074  0.04227848  0.70465521    -0.27600
C2662       C  0.72344711  0.05224744  0.68522014     0.18400
C2663       C  0.75320934  0.11160247  0.64479870     0.12400
C2664       C  0.79780021  0.08910403  0.68012924    -0.12000
H2665       H  0.78432695  0.04535441  0.71344737     0.12700
C2666       C  0.69834784  0.03819335  0.68096840    -0.22800
H2667       H  0.71113949  0.08312512  0.65285249     0.08300
C2668       C  0.75663628  0.10942636  0.61050545     0.04600
C2669       C  0.75710472  0.13210954  0.59119360    -0.20100
C2670       C  0.75424885  0.15738916  0.60501394    -0.12300
C2671       C  0.75099400  0.15942871  0.63975807     0.13300
C2672       C  0.75055003  0.13648411  0.65907524    -0.22800
C2673       C  0.75970979  0.08306447  0.59417661    -0.05800
H2674       H  0.75956092  0.12978318  0.56484377     0.14900
C2675       C  0.74742816  0.18537504  0.65687208    -0.16000
H2676       H  0.74771550  0.13788219  0.68549801     0.09200
H2677       H  0.69406490  0.03617776  0.65429201     0.07000
H2678       H  0.68272537  0.04952329  0.69293979     0.08200
H2679       H  0.69883546  0.01808319  0.69087218     0.07300
H2680       H  0.79697457  0.10933075  0.69012628     0.02200
H2681       H  0.80423049  0.08981071  0.65403381     0.02700
H2682       H  0.81222203  0.07796337  0.69443533     0.06200
H2683       H  0.76249921  0.08482654  0.56711577     0.05100
H2684       H  0.74237838  0.07099421  0.59855380    -0.00600
H2685       H  0.77664114  0.07286261  0.60446209     0.00800
H2686       H  0.74468143  0.18301900  0.68386077     0.04500
H2687       H  0.73021223  0.19541075  0.64708987     0.06400
H2688       H  0.76462249  0.19776527  0.65314935     0.07300
C2689       C  0.75510135  0.35847203  0.66465029    -0.22300
C2690       C  0.76145358  0.38318329  0.65206912     0.09700
C2691       C  0.77051123  0.38516014  0.61945971     0.10100
C2692       C  0.77061239  0.36288843  0.59915131    -0.17200
C2693       C  0.76256264  0.33817007  0.61071898    -0.27600
C2694       C  0.75619769  0.33580289  0.64473905     0.18400
C2695       C  0.75732313  0.40694471  0.67277555     0.12400
C2696       C  0.78003646  0.41086015  0.60605650    -0.12000
H2697       H  0.77689007  0.36500793  0.57381536     0.12700
C2698       C  0.75063852  0.30977969  0.66056023    -0.22800
H2699       H  0.74897636  0.35700349  0.69013625     0.08300
C2700       C  0.73435910  0.42140796  0.67081183     0.04600
C2701       C  0.73099709  0.44365582  0.69080431    -0.20100
C2702       C  0.74991388  0.45180577  0.71313770    -0.12300
C2703       C  0.77301651  0.43730367  0.71491423     0.13300
C2704       C  0.77646117  0.41515247  0.69457565    -0.22800
C2705       C  0.71316313  0.41302655  0.64803732    -0.05800
H2706       H  0.71323397  0.45456732  0.68942140     0.14900
C2707       C  0.79339572  0.44386770  0.73958252    -0.16000
H2708       H  0.79397989  0.40385681  0.69607986     0.09200
H2709       H  0.73424620  0.30027785  0.64833436     0.07000
H2710       H  0.74580001  0.31184576  0.68712400     0.08200
H2711       H  0.76774145  0.29696056  0.65860140     0.07300
H2712       H  0.79631781  0.41786501  0.62120206     0.02200
H2713       H  0.76451926  0.42567436  0.60679382     0.02700
H2714       H  0.78678285  0.40899537  0.58016000     0.06200
H2715       H  0.69639350  0.42633299  0.64970638     0.05100
H2716       H  0.70671991  0.39299968  0.65460763    -0.00600
H2717       H  0.72006925  0.41304126  0.62214173     0.00800
H2718       H  0.80974729  0.43000622  0.73824372     0.04500
H2719       H  0.78508150  0.44249211  0.76461318     0.06400
H2720       H  0.80103671  0.46376733  0.73517424     0.07300
C2721       C  0.85661419  0.11740893  0.51320722    -0.22300
C2722       C  0.88131764  0.12430761  0.50314197     0.09700
C2723       C  0.88666990  0.15026450  0.49399162     0.10100
C2724       C  0.86693522  0.16881244  0.49463343    -0.17200
C2725       C  0.84170362  0.16197977  0.50342522    -0.27600
C2726       C  0.83667948  0.13583980  0.51363716     0.18400
C2727       C  0.90124813  0.10386020  0.50190292     0.12400
C2728       C  0.91321778  0.15834399  0.48352804    -0.12000
H2729       H  0.87134110  0.18876729  0.48795589     0.12700
C2730       C  0.81082785  0.12712744  0.52611997    -0.22800
H2731       H  0.85294360  0.09738298  0.52061880     0.08300
C2732       C  0.91545988  0.09704387  0.53008204     0.04600
C2733       C  0.93411686  0.07741469  0.52758664    -0.20100
C2734       C  0.93889002  0.06476549  0.49748910    -0.12300
C2735       C  0.92482992  0.07181604  0.46918318     0.13300
C2736       C  0.90600831  0.09121872  0.47183319    -0.22800
C2737       C  0.91121306  0.11080537  0.56250151    -0.05800
H2738       H  0.94528954  0.07211076  0.54901561     0.14900
C2739       C  0.92953981  0.05965041  0.43582231    -0.16000
H2740       H  0.89512641  0.09673972  0.45023039     0.09200
H2741       H  0.80472040  0.13987522  0.54690135     0.07000
H2742       H  0.81122534  0.10667721  0.53533244     0.08200
H2743       H  0.79653214  0.12784241  0.50600952     0.07300
H2744       H  0.91919160  0.14696085  0.46146664     0.02200
H2745       H  0.92690887  0.15461897  0.50383505     0.02700
H2746       H  0.91415089  0.17945857  0.47721892     0.06200
H2747       H  0.92408761  0.10318327  0.58197201     0.05100
H2748       H  0.89113987  0.10796790  0.57079770    -0.00600
H2749       H  0.91499876  0.13205348  0.55961962     0.00800
H2750       H  0.91165308  0.05037719  0.42687315     0.04500
H2751       H  0.94469388  0.04447156  0.43607452     0.06400
H2752       H  0.93543527  0.07509155  0.41814035     0.07300
C2753       C  0.60848711  0.09057846  0.45906151    -0.22300
C2754       C  0.61033344  0.10802135  0.48555302     0.09700
C2755       C  0.59188942  0.10764985  0.51099592     0.10100
C2756       C  0.57247423  0.08881368  0.51011395    -0.17200
C2757       C  0.57103804  0.07073711  0.48412180    -0.27600
C2758       C  0.58887906  0.07198665  0.45786036     0.18400
C2759       C  0.63175339  0.12662967  0.48619477     0.12400
C2760       C  0.59282420  0.12702024  0.53903623    -0.12000
H2761       H  0.55860864  0.08782196  0.53002105     0.12700
C2762       C  0.58776615  0.05409650  0.42832061    -0.22800
H2763       H  0.62252604  0.09139769  0.43932945     0.08300
C2764       C  0.65449472  0.12092799  0.50326351     0.04600
C2765       C  0.67366145  0.13999220  0.50505034    -0.20100
C2766       C  0.67055545  0.16447364  0.48992210    -0.12300
C2767       C  0.64825180  0.16946385  0.47106931     0.13300
C2768       C  0.62902180  0.15044181  0.46973712    -0.22800
C2769       C  0.65847602  0.09475007  0.51948679    -0.05800
H2770       H  0.69094697  0.13592203  0.51881619     0.14900
C2771       C  0.64482268  0.19423917  0.45135822    -0.16000
H2772       H  0.61162866  0.15418676  0.45603928     0.09200
H2773       H  0.60551473  0.04217585  0.42704026     0.07000
H2774       H  0.58627189  0.06600692  0.40555191     0.08200
H2775       H  0.57114898  0.04064297  0.42888079     0.07300
H2776       H  0.59162756  0.14724238  0.52921208     0.02200
H2777       H  0.61099002  0.12479415  0.55281611     0.02700
H2778       H  0.57671310  0.12416288  0.55660163     0.06200
H2779       H  0.67744038  0.09350133  0.53165676     0.05100
H2780       H  0.65739987  0.07898674  0.50066677    -0.00600
H2781       H  0.64349580  0.09139825  0.53846485     0.00800
H2782       H  0.62731413  0.19354801  0.43593617     0.04500
H2783       H  0.66144766  0.19700960  0.43458884     0.06400
H2784       H  0.64287277  0.21136618  0.46800852     0.07300
C2785       C  0.60117852  0.40215290  0.52179083    -0.22300
C2786       C  0.61783380  0.40042585  0.49479950     0.09700
C2787       C  0.61425938  0.41655168  0.46708917     0.10100
C2788       C  0.59378892  0.43421596  0.46699490    -0.17200
C2789       C  0.57688612  0.43578235  0.49388161    -0.27600
C2790       C  0.58072326  0.41977100  0.52179702     0.18400
C2791       C  0.63756208  0.37998344  0.49514219     0.12400
C2792       C  0.63183322  0.41484483  0.43763315    -0.12000
H2793       H  0.59077778  0.44674734  0.44583479     0.12700
C2794       C  0.56376543  0.42078379  0.55191643    -0.22800
H2795       H  0.60404981  0.38946841  0.54285561     0.08300
C2796       C  0.66163082  0.38407884  0.50964177     0.04600
C2797       C  0.67918477  0.36339507  0.51036781    -0.20100
C2798       C  0.67302890  0.33864959  0.49724969    -0.12300
C2799       C  0.64871380  0.33483465  0.48248380     0.13300
C2800       C  0.63136698  0.35565705  0.48165965    -0.22800
C2801       C  0.66864955  0.41014933  0.52446762    -0.05800
H2802       H  0.69769055  0.36652357  0.52168738     0.14900
C2803       C  0.64089515  0.30933420  0.46672271    -0.16000
H2804       H  0.61268272  0.35297490  0.47061005     0.09200
H2805       H  0.57555686  0.42512664  0.57396466     0.07000
H2806       H  0.55431574  0.40151606  0.55532399     0.08200
H2807       H  0.54869409  0.43597593  0.55043318     0.07300
H2808       H  0.63109379  0.39484169  0.42695519     0.02200
H2809       H  0.65176767  0.41923798  0.44520274     0.02700
H2810       H  0.62631820  0.42895194  0.41812019     0.06200
H2811       H  0.68838957  0.41006458  0.53453675     0.05100
H2812       H  0.65522697  0.41496259  0.54487788    -0.00600
H2813       H  0.66752291  0.42563595  0.50538816     0.00800
H2814       H  0.62192455  0.31075486  0.45458788     0.04500
H2815       H  0.63938349  0.29377121  0.48565631     0.06400
H2816       H  0.65512230  0.30374822  0.44757208     0.07300
C2817       C  0.88347961  0.35227310  0.47434369    -0.22300
C2818       C  0.88143338  0.37458761  0.49426449     0.09700
C2819       C  0.85923806  0.37860001  0.51352961     0.10100
C2820       C  0.84016981  0.35928988  0.51395250    -0.17200
C2821       C  0.84271077  0.33624812  0.49526240    -0.27600
C2822       C  0.86429637  0.33307562  0.47434614     0.18400
C2823       C  0.90282472  0.39350589  0.49435423     0.12400
C2824       C  0.85551349  0.40337893  0.53319589    -0.12000
H2825       H  0.82334271  0.36203788  0.52930256     0.12700
C2826       C  0.86688223  0.31007235  0.45115430    -0.22800
H2827       H  0.90029102  0.34983417  0.45888769     0.08300
C2828       C  0.92182290  0.39293603  0.51898531     0.04600
C2829       C  0.94170396  0.41139275  0.51807741    -0.20100
C2830       C  0.94324163  0.42993599  0.49268347    -0.12300
C2831       C  0.92469729  0.42975962  0.46732447     0.13300
C2832       C  0.90457498  0.41167801  0.46868881    -0.22800
C2833       C  0.92127975  0.37265127  0.54589137    -0.05800
H2834       H  0.95601050  0.41154172  0.53734795     0.14900
C2835       C  0.92565200  0.44820688  0.43839341    -0.16000
H2836       H  0.89019341  0.41164766  0.44949016     0.09200
H2837       H  0.86898203  0.29163701  0.46525135     0.07000
H2838       H  0.88398771  0.31191035  0.43497383     0.08200
H2839       H  0.84977173  0.30883605  0.43506597     0.07300
H2840       H  0.85584940  0.42048861  0.51638693     0.02200
H2841       H  0.87097535  0.40559494  0.55161540     0.02700
H2842       H  0.83692331  0.40342865  0.54658392     0.06200
H2843       H  0.93779414  0.37475863  0.56283577     0.05100
H2844       H  0.92204597  0.35277843  0.53481922    -0.00600
H2845       H  0.90348891  0.37450790  0.56069333     0.00800
H2846       H  0.92593299  0.43673661  0.41511749     0.04500
H2847       H  0.94282754  0.46091002  0.43833272     0.06400
H2848       H  0.90840379  0.46090310  0.43868034     0.07300
C2849       C  0.58386654  0.22796163  0.33079427    -0.22300
C2850       C  0.60143333  0.24848214  0.32827114     0.09700
C2851       C  0.59643420  0.26910830  0.30632012     0.10100
C2852       C  0.57369415  0.26905328  0.28791857    -0.17200
C2853       C  0.55525017  0.24887192  0.29079487    -0.27600
C2854       C  0.56086380  0.22786237  0.31293043     0.18400
C2855       C  0.62402130  0.24884961  0.35057167     0.12400
C2856       C  0.61491103  0.29159224  0.30281020    -0.12000
H2857       H  0.57077351  0.28538550  0.27178104     0.12700
C2858       C  0.54346913  0.20472337  0.31913676    -0.22800
H2859       H  0.58788493  0.21205597  0.34766649     0.08300
C2860       C  0.62126386  0.25492053  0.38427758     0.04600
C2861       C  0.64296547  0.25540847  0.40451044    -0.20100
C2862       C  0.66778063  0.24999711  0.39222907    -0.12300
C2863       C  0.67031815  0.24343599  0.35828579     0.13300
C2864       C  0.64843692  0.24312387  0.33799182    -0.22800
C2865       C  0.59538412  0.26117119  0.39894450    -0.05800
H2866       H  0.64027329  0.25993231  0.43035568     0.14900
C2867       C  0.69566898  0.23594439  0.34319483    -0.16000
H2868       H  0.65031349  0.23818563  0.31210226     0.09200
H2869       H  0.53921246  0.20336744  0.34591518     0.07000
H2870       H  0.55334173  0.18649199  0.31124820     0.08200
H2871       H  0.52489018  0.20543626  0.30643041     0.07300
H2872       H  0.63365196  0.28427348  0.29370075     0.02200
H2873       H  0.61758921  0.30129512  0.32706264     0.02700
H2874       H  0.60794716  0.30651236  0.28511382     0.06200
H2875       H  0.59669276  0.26624892  0.42551536     0.05100
H2876       H  0.58253069  0.24399297  0.39664696    -0.00600
H2877       H  0.58679555  0.27807755  0.38586766     0.00800
H2878       H  0.69374369  0.23040817  0.31683610     0.04500
H2879       H  0.70374033  0.21884333  0.35641310     0.06400
H2880       H  0.70912233  0.25270674  0.34445516     0.07300
C2881       C  0.89007555  0.23703621  0.37940811    -0.22300
C2882       C  0.88879734  0.25168037  0.35046044     0.09700
C2883       C  0.86579405  0.26463998  0.34237159     0.10100
C2884       C  0.84466973  0.26310843  0.36402981    -0.17200
C2885       C  0.84608311  0.24894240  0.39365576    -0.27600
C2886       C  0.86921342  0.23548982  0.40113839     0.18400
C2887       C  0.91199890  0.25264679  0.32918835     0.12400
C2888       C  0.86353654  0.27989471  0.31083440    -0.12000
H2889       H  0.82717989  0.27345968  0.35811390     0.12700
C2890       C  0.87219864  0.21888291  0.43154631    -0.22800
H2891       H  0.90774618  0.22691718  0.38516491     0.08300
C2892       C  0.93051100  0.27254880  0.33278880     0.04600
C2893       C  0.95316017  0.27144118  0.31397268    -0.20100
C2894       C  0.95822836  0.25034681  0.29259783    -0.12300
C2895       C  0.94001554  0.22996194  0.28994159     0.13300
C2896       C  0.91698196  0.23158323  0.30791571    -0.22800
C2897       C  0.92690158  0.29423494  0.35761861    -0.05800
H2898       H  0.96734737  0.28676414  0.31661214     0.14900
C2899       C  0.94542232  0.20563613  0.27005197    -0.16000
H2900       H  0.90310907  0.21587239  0.30628951     0.09200
H2901       H  0.87226798  0.23137872  0.45393831     0.07000
H2902       H  0.89053521  0.20787163  0.43140522     0.08200
H2903       H  0.85640933  0.20438484  0.43290019     0.07300
H2904       H  0.86686306  0.26667899  0.28949040     0.02200
H2905       H  0.87792163  0.29584121  0.31029224     0.02700
H2906       H  0.84427226  0.28882931  0.30820785     0.06200
H2907       H  0.94322576  0.30814563  0.35738696     0.05100
H2908       H  0.92537366  0.28580325  0.38275370    -0.00600
H2909       H  0.90919825  0.30536901  0.35219121     0.00800
H2910       H  0.93004758  0.19081925  0.27302433     0.04500
H2911       H  0.96364431  0.19665113  0.27833478     0.06400
H2912       H  0.94672643  0.21042123  0.24349627     0.07300
C2913       C  0.75762288  0.40481576  0.29272905    -0.22300
C2914       C  0.75350846  0.40638560  0.32686899     0.09700
C2915       C  0.74682360  0.43072922  0.34107728     0.10100
C2916       C  0.74406265  0.45288250  0.32082586    -0.17200
C2917       C  0.74752100  0.45119835  0.28659133    -0.27600
C2918       C  0.75463031  0.42687784  0.27238274     0.18400
C2919       C  0.75519135  0.38226061  0.34737866     0.12400
C2920       C  0.74182692  0.43306596  0.37754826    -0.12000
H2921       H  0.73829355  0.47140987  0.33160133     0.12700
C2922       C  0.75908902  0.42347013  0.23588468    -0.22800
H2923       H  0.76279272  0.38615310  0.28181343     0.08300
C2924       C  0.73431271  0.36482948  0.35022410     0.04600
C2925       C  0.73577466  0.34363558  0.37224444    -0.20100
C2926       C  0.75758259  0.33954515  0.39165769    -0.12300
C2927       C  0.77876536  0.35663998  0.38821249     0.13300
C2928       C  0.77729885  0.37771669  0.36604109    -0.22800
C2929       C  0.71026634  0.36899677  0.33057942    -0.05800
H2930       H  0.71954574  0.33059984  0.37500633     0.14900
C2931       C  0.80326323  0.35312639  0.40727424    -0.16000
H2932       H  0.79336562  0.39101447  0.36373121     0.09200
H2933       H  0.74535470  0.40889677  0.22597726     0.07000
H2934       H  0.77887949  0.41629007  0.23155056     0.08200
H2935       H  0.75681169  0.44185995  0.22180571     0.07300
H2936       H  0.75934887  0.42776849  0.39140181     0.02200
H2937       H  0.72604014  0.41968939  0.38478417     0.02700
H2938       H  0.73626881  0.45328696  0.38465191     0.06200
H2939       H  0.69558190  0.35391526  0.33614751     0.05100
H2940       H  0.71476407  0.36798034  0.30384486    -0.00600
H2941       H  0.70199762  0.38848926  0.33642065     0.00800
H2942       H  0.81947291  0.35056721  0.38977853     0.04500
H2943       H  0.80298969  0.33584222  0.42370528     0.06400
H2944       H  0.80683998  0.37075674  0.42261969     0.07300
C2945       C  0.77687588  0.11749325  0.37266838    -0.22300
C2946       C  0.75833224  0.11594095  0.34786346     0.09700
C2947       C  0.74197115  0.13760967  0.34264879     0.10100
C2948       C  0.74352466  0.15962913  0.36356890    -0.17200
C2949       C  0.76109333  0.16055651  0.38965280    -0.27600
C2950       C  0.77861093  0.13952987  0.39345062     0.18400
C2951       C  0.75535211  0.09092630  0.32902064     0.12400
C2952       C  0.72286986  0.13748751  0.31496282    -0.12000
H2953       H  0.73031666  0.17576175  0.36029790     0.12700
C2954       C  0.79951189  0.14035759  0.41899735    -0.22800
H2955       H  0.78967359  0.10106120  0.37629919     0.08300
C2956       C  0.77269334  0.08316012  0.30398693     0.04600
C2957       C  0.76818420  0.05985577  0.28617526    -0.20100
C2958       C  0.74683571  0.04401054  0.29298804    -0.12300
C2959       C  0.73041605  0.05102269  0.31943749     0.13300
C2960       C  0.73471189  0.07446231  0.33677674    -0.22800
C2961       C  0.79549940  0.09984255  0.29544934    -0.05800
H2962       H  0.78083264  0.05448837  0.26601797     0.14900
C2963       C  0.70844778  0.03399752  0.33041688    -0.16000
H2964       H  0.72180570  0.07996323  0.35661398     0.09200
H2965       H  0.81106916  0.15842504  0.41587907     0.07000
H2966       H  0.81263364  0.12333525  0.41672520     0.08200
H2967       H  0.79119853  0.13990182  0.44415693     0.07300
H2968       H  0.70902845  0.12124763  0.31833210     0.02200
H2969       H  0.73304937  0.13490079  0.29109793     0.02700
H2970       H  0.71190527  0.15609352  0.31390351     0.06200
H2971       H  0.80673415  0.09137113  0.27471792     0.05100
H2972       H  0.80832052  0.10146040  0.31709744    -0.00600
H2973       H  0.78902948  0.11969307  0.28815738     0.00800
H2974       H  0.71060834  0.02934557  0.35698547     0.04500
H2975       H  0.70757060  0.01512756  0.31697071     0.06400
H2976       H  0.69011505  0.04457648  0.32680951     0.07300
O2977       O  0.75815880  0.70629245  0.40378265    -0.80000
O2978       O  0.75479746  0.70406558  0.59307826    -0.81500
O2979       O  0.79797140  0.67550740  0.50026827    -0.78500
O2980       O  0.71428987  0.67605504  0.49461117    -0.76900
O2981       O  0.68402076  0.70825466  0.49661381    -0.78700
O2982       O  0.82897924  0.70672911  0.50213379    -0.79700
O2983       O  0.75459291  0.67453048  0.55090478    -0.81000
O2984       O  0.75911684  0.67558117  0.44472892    -0.81300
Eu2985     Eu  0.75618802  0.69735525  0.49842360     2.39200
O2986       O  0.73005322  0.72299379  0.53327043    -0.88800
O2987       O  0.78247654  0.72362268  0.46532043    -0.92400
C2988       C  0.75950437  0.68232644  0.41414259     1.02300
C2989       C  0.75449115  0.68028585  0.58183161     1.02100
C2990       C  0.82157226  0.68263944  0.50196383     1.02100
C2991       C  0.69091598  0.68416916  0.49400721     0.99900
H2992       H  0.79200278  0.71167624  0.54731645     0.29700
O2993       O  0.78146591  0.72285542  0.53385610    -1.01200
H2994       H  0.72018235  0.71344885  0.45113502     0.29700
O2995       O  0.73081152  0.72421495  0.46504827    -1.03700
O2996       O  0.75864032  0.79230130  0.59590359    -0.80900
O2997       O  0.75659872  0.79430219  0.40561601    -0.80500
O2998       O  0.82791321  0.75050297  0.55474760    -0.78900
O2999       O  0.68259616  0.74937360  0.55301164    -0.82200
O3000       O  0.68344195  0.75087632  0.44704904    -0.80100
O3001       O  0.82963489  0.74921756  0.44790709    -0.78800
O3002       O  0.79902117  0.82420800  0.49863997    -0.80300
O3003       O  0.71625197  0.82503174  0.49958609    -0.82200
O3004       O  0.82928564  0.79198326  0.49892766    -0.78900
O3005       O  0.68517838  0.79377753  0.49912344    -0.81600
O3006       O  0.79776501  0.74851965  0.59569951    -0.77300
O3007       O  0.80076830  0.75005148  0.40575205    -0.77400
O3008       O  0.71321049  0.75026785  0.40576620    -0.77000
O3009       O  0.71211683  0.74945144  0.59458772    -0.80500
O3010       O  0.75984774  0.82314583  0.55532872    -0.79900
O3011       O  0.75757635  0.82497020  0.44701323    -0.78300
Eu3012     Eu  0.75544173  0.74887607  0.56855546     2.39800
Eu3013     Eu  0.75695173  0.75019012  0.43097319     2.39600
Eu3014     Eu  0.80754490  0.74943742  0.50069638     2.38400
Eu3015     Eu  0.70537266  0.75056778  0.49992303     2.39900
Eu3016     Eu  0.75729230  0.80248010  0.50065001     2.39800
O3017       O  0.73154967  0.77660981  0.46615080    -0.92700
O3018       O  0.78184869  0.77547248  0.53490988    -0.91600
C3019       C  0.76022980  0.81631690  0.58598379     1.02500
C3020       C  0.75721169  0.81817409  0.41632939     1.01200
C3021       C  0.82118177  0.74970913  0.58534223     1.00600
C3022       C  0.68878797  0.74943714  0.58377222     1.02600
C3023       C  0.68970100  0.75043350  0.41629483     1.01500
C3024       C  0.82397015  0.74932828  0.41710987     1.00400
C3025       C  0.82240339  0.81618815  0.49774003     1.00400
C3026       C  0.69267215  0.81777485  0.49870633     1.03000
H3027       H  0.79356707  0.78687414  0.45289234     0.30400
O3028       O  0.78257617  0.77595909  0.46627408    -1.04800
H3029       H  0.71996831  0.78774420  0.54824625     0.32500
O3030       O  0.73065785  0.77664306  0.53469249    -1.07400
N3031       N  0.96887226  0.49818249  0.49392364    -0.36400
N3032       N  0.50923354  0.95977876  0.49330564    -0.57000
N3033       N  0.54657925  0.50194139  0.48807146    -0.36400
N3034       N  0.50612923  0.54026250  0.49158220    -0.57000
C3035       C  0.95566683  0.97628251  0.50164518     0.27100
C3036       C  0.95409065  0.51884471  0.50249084     0.27100
C3037       C  0.56198137  0.98164910  0.49574182     0.27100
C3038       C  0.56023015  0.52404882  0.49297760     0.27100
C3039       C  0.98922954  0.94343556  0.48888361     0.35800
C3040       C  0.53058163  0.94553327  0.48789741     0.35800
C3041       C  0.98452864  0.55435261  0.48785184     0.35800
C3042       C  0.52564065  0.55629355  0.48342707     0.35800
C3043       C  0.93218839  0.98307970  0.51521527    -0.21700
C3044       C  0.93119651  0.50999687  0.51577837    -0.21700
C3045       C  0.58577439  0.99096746  0.50531761    -0.21700
C3046       C  0.58467961  0.51775790  0.50350119    -0.21700
C3047       C  0.99789864  0.91857908  0.48086809    -0.22800
C3048       C  0.52417601  0.91987604  0.48043557    -0.22800
C3049       C  0.99032860  0.57954606  0.47764698    -0.22800
C3050       C  0.51646088  0.58074939  0.47474140    -0.22800
C3051       C  0.96340411  0.95042608  0.49423966    -0.18100
C3052       C  0.95983522  0.54531625  0.49588372    -0.18100
C3053       C  0.55167003  0.54966270  0.48628565    -0.18100
C3054       C  0.55573376  0.95492828  0.49227175    -0.18100
H3055       H  0.91717604  0.96999971  0.52339667     0.14800
H3056       H  0.91522699  0.52169011  0.52437061     0.14800
H3057       H  0.60233083  0.97963170  0.51252286     0.14800
H3058       H  0.60018659  0.53107854  0.50904537     0.14800
H3059       H  0.98653575  0.90123511  0.47643955     0.13100
H3060       H  0.53709269  0.90373722  0.47560838     0.13100
H3061       H  0.97714585  0.59546989  0.47313072     0.13100
H3062       H  0.52745593  0.59776244  0.46754953     0.13100
H3063       H  0.98534696  0.49892957  0.47953819     0.26300
H3064       H  0.52894514  0.50067641  0.47645314     0.26300
O3065       O  0.98761643  0.95531216  0.90457424    -0.80000
O3066       O  0.98889144  0.95194172  0.09398843    -0.81500
O3067       O  0.53296032  0.92510477  0.99725044    -0.78500
O3068       O  0.94935762  0.92240369  0.99824569    -0.76900
O3069       O  0.91759707  0.95299425  0.00003623    -0.78700
O3070       O  0.56283378  0.95752787  0.99714880    -0.79700
O3071       O  0.98849765  0.92203051  0.05185859    -0.81000
O3072       O  0.99054809  0.92387186  0.94465751    -0.81300
Eu3073     Eu  0.99046283  0.94515089  0.99896713     2.39200
O3074       O  0.96445756  0.96998740  0.03440982    -0.88800
O3075       O  0.51489929  0.97291255  0.96533324    -0.92400
C3076       C  0.98892375  0.93121127  0.91432851     1.02300
C3077       C  0.98778935  0.92823690  0.08268740     1.02100
C3078       C  0.55627045  0.93323569  0.99636737     1.02100
C3079       C  0.92563445  0.92917738  0.99866201     0.99900
H3080       H  0.52718394  0.96026954  0.04651607     0.29700
O3081       O  0.51604328  0.97125602  0.03360745    -1.01200
H3082       H  0.95301056  0.96021860  0.95256085     0.29700
O3083       O  0.96366758  0.97120556  0.96617148    -1.03700
O3084       O  0.98979996  0.53956996  0.09730726    -0.80900
O3085       O  0.98805839  0.54386961  0.90797634    -0.80500
O3086       O  0.56272273  0.99941965  0.05246973    -0.78900
O3087       O  0.91699472  0.99411980  0.05638576    -0.82200
O3088       O  0.91638060  0.99694597  0.94798996    -0.80100
O3089       O  0.56123201  0.99717311  0.94527574    -0.78800
O3090       O  0.52789915  0.57350642  0.00251864    -0.80300
O3091       O  0.94450360  0.57023860  0.00356518    -0.82200
O3092       O  0.55973904  0.54294817  0.99980058    -0.78900
O3093       O  0.91486924  0.53753845  0.00201681    -0.81600
O3094       O  0.53312427  0.99788040  0.09431857    -0.77300
O3095       O  0.53083923  0.49774814  0.90466659    -0.77400
O3096       O  0.94545274  0.49963962  0.90603274    -0.77000
O3097       O  0.94737975  0.99535189  0.09685454    -0.80500
O3098       O  0.98866374  0.57105921  0.05715290    -0.79900
O3099       O  0.98596546  0.57370366  0.95015796    -0.78300
Eu3100     Eu  0.98975940  0.99639651  0.06919632     2.39800
Eu3101     Eu  0.98827609  0.99899959  0.93205504     2.39600
Eu3102     Eu  0.54025470  0.99928316  0.99949979     2.38400
Eu3103     Eu  0.93771789  0.99600954  0.00178887     2.39900
Eu3104     Eu  0.98712964  0.55020702  0.00259985     2.39800
O3105       O  0.96206300  0.52380306  0.96805872    -0.92700
O3106       O  0.51413604  0.52410696  0.03491886    -0.91600
C3107       C  0.98982675  0.56365099  0.08749554     1.02500
C3108       C  0.98703637  0.56759733  0.91933500     1.01200
C3109       C  0.55639593  0.99899501  0.08322625     1.00600
C3110       C  0.92388447  0.99433327  0.08695588     1.02600
C3111       C  0.92223006  0.49891639  0.91722877     1.01500
C3112       C  0.55428408  0.49660316  0.91479319     1.00400
C3113       C  0.55161682  0.56678287  0.00106136     1.00400
C3114       C  0.92123834  0.56182219  0.00297850     1.03000
H3115       H  0.52402535  0.53707193  0.95344209     0.30400
O3116       O  0.51359300  0.52561727  0.96679841    -1.04800
H3117       H  0.95163071  0.53313267  0.05054585     0.32500
O3118       O  0.96258151  0.52267289  0.03653204    -1.07400
N3119       N  0.77815613  0.74609043  0.99804204    -0.36400
N3120       N  0.73752435  0.70742888  0.99838815    -0.57000
N3121       N  0.70022598  0.74942375  0.99970452    -0.36400
N3122       N  0.74104695  0.78790290  0.99610212    -0.57000
C3123       C  0.79160378  0.72417208  0.99131961     0.27100
C3124       C  0.79351383  0.76658768  0.99108233     0.27100
C3125       C  0.68479438  0.72860905  0.99448640     0.27100
C3126       C  0.68669171  0.77111575  0.99204521     0.27100
C3127       C  0.75769337  0.69152901  0.00379719     0.35800
C3128       C  0.71638740  0.69325492  0.00521841     0.35800
C3129       C  0.76227838  0.80223108  0.00166683     0.35800
C3130       C  0.72100452  0.80412865  0.00086615     0.35800
C3131       C  0.81585741  0.73079041  0.98005559    -0.21700
C3132       C  0.81707049  0.75764135  0.97994240    -0.21700
C3133       C  0.66103820  0.73717258  0.98387023    -0.21700
C3134       C  0.66225500  0.76401236  0.98224645    -0.21700
C3135       C  0.74937285  0.66701711  0.01367810    -0.22800
C3136       C  0.72312728  0.66811069  0.01458760    -0.22800
C3137       C  0.75573007  0.82775754  0.00968787    -0.22800
C3138       C  0.72951190  0.82898850  0.00903964    -0.22800
C3139       C  0.78343669  0.69848014  0.99821986    -0.18100
C3140       C  0.78747896  0.79302539  0.99719163    -0.18100
C3141       C  0.69521724  0.79720251  0.99576356    -0.18100
C3142       C  0.69108742  0.70222609  0.00098650    -0.18100
H3143       H  0.83128985  0.71763534  0.97340481     0.14800
H3144       H  0.83358424  0.76924138  0.97313134     0.14800
H3145       H  0.64445843  0.72533092  0.97818337     0.14800
H3146       H  0.64677875  0.77685558  0.97507791     0.14800
H3147       H  0.76098562  0.65009841  0.01942495     0.13100
H3148       H  0.71045906  0.65218667  0.02116305     0.13100
H3149       H  0.76850191  0.84388369  0.01498660     0.13100
H3150       H  0.71803762  0.84623893  0.01378476     0.13100
H3151       H  0.76098824  0.74696712  0.01096102     0.26300
H3152       H  0.71780565  0.74900838  0.01149852     0.26300
C3153       C  0.53023436  0.74955932  0.27054505     0.86600
C3154       C  0.52723139  0.72505357  0.24898426    -0.53600
C3155       C  0.00460951  0.72326963  0.23235400     0.09600
C3156       C  0.98699776  0.74723410  0.23788325     0.20500
C3157       C  0.52618470  0.77222872  0.24592788    -0.54300
C3158       C  0.00379324  0.77091830  0.22874544     0.09700
C3159       C  0.00609374  0.75067618  0.29237379    -0.53800
C3160       C  0.98352975  0.74920997  0.27556065     0.10200
H3161       H  0.54186025  0.70997471  0.24747966     0.14800
H3162       H  0.96856050  0.74665422  0.22459615     0.00500
H3163       H  0.53920035  0.78827541  0.24159932     0.15100
H3164       H  0.00684730  0.75231968  0.31905101     0.14900
C3165       C  0.71577764  0.99986425  0.22703235     0.86600
C3166       C  0.71908564  0.97487891  0.24769216    -0.53600
C3167       C  0.74091667  0.97428253  0.26612895     0.09600
C3168       C  0.75801117  0.99877710  0.26190776     0.20500
C3169       C  0.71855667  0.52274000  0.25141095    -0.54300
C3170       C  0.74042268  0.52229806  0.26975666     0.09700
C3171       C  0.74071485  0.00021511  0.20643338    -0.53800
C3172       C  0.76277460  0.00044547  0.22440567     0.10200
H3173       H  0.70557446  0.95874226  0.24736132     0.14800
H3174       H  0.77578564  0.99832537  0.27681308     0.00500
H3175       H  0.70450578  0.53833559  0.25353458     0.15100
H3176       H  0.74139593  0.99866503  0.17981779     0.14900
C3177       C  0.52810579  0.74793125  0.72820452     0.86600
C3178       C  0.52399404  0.77231984  0.74971085    -0.53600
C3179       C  0.00117721  0.77315255  0.76620833     0.09600
C3180       C  0.98443529  0.74861972  0.76063753     0.20500
C3181       C  0.52436500  0.72482257  0.75236575    -0.54300
C3182       C  0.00169401  0.72502467  0.76934583     0.09700
C3183       C  0.00423918  0.74611962  0.70617205    -0.53800
C3184       C  0.98145377  0.74680736  0.72282606     0.10200
H3185       H  0.53813649  0.78780931  0.75159570     0.14800
H3186       H  0.96598678  0.74905815  0.77432978     0.00500
H3187       H  0.53759949  0.70873999  0.75543636     0.15100
H3188       H  0.00526759  0.74474876  0.67948034     0.14900
C3189       C  0.71669569  0.99873944  0.77484578     0.86600
C3190       C  0.71808647  0.52115577  0.74987474    -0.53600
C3191       C  0.73963591  0.52158213  0.73056495     0.09600
C3192       C  0.75895411  0.99973358  0.73947713     0.20500
C3193       C  0.72187221  0.97356559  0.75492109    -0.54300
C3194       C  0.74361054  0.97398352  0.73600444     0.09700
C3195       C  0.74144144  0.00171517  0.79529210    -0.53800
C3196       C  0.76345344  0.00248346  0.77703521     0.10200
H3197       H  0.70307986  0.53577035  0.74801777     0.14800
H3198       H  0.77668749  0.00016967  0.72440026     0.00500
H3199       H  0.70912120  0.95679143  0.75539623     0.15100
H3200       H  0.74229317  0.00145168  0.82194294     0.14900
C3201       C  0.60485208  0.52121427  0.14759192    -0.22300
C3202       C  0.62227959  0.00029947  0.14677318     0.09700
C3203       C  0.61719833  0.97850438  0.12638797     0.10100
C3204       C  0.59519941  0.97844576  0.10653021    -0.17200
C3205       C  0.57781505  0.99941730  0.10706644    -0.27600
C3206       C  0.58265316  0.52103821  0.12808161     0.18400
C3207       C  0.64577667  0.00167641  0.16732115     0.12400
C3208       C  0.63497682  0.95530244  0.12566501    -0.12000
H3209       H  0.59157173  0.96196477  0.09033192     0.12700
C3210       C  0.56551169  0.54466653  0.12968029    -0.22800
H3211       H  0.60881176  0.53795639  0.16322504     0.08300
C3212       C  0.66899701  0.01143012  0.15466820     0.04600
C3213       C  0.69098054  0.01112098  0.17449501    -0.20100
C3214       C  0.69060249  0.00145155  0.20717626    -0.12300
C3215       C  0.66621059  0.49498515  0.22085887     0.13300
C3216       C  0.64454226  0.49405428  0.20036645    -0.22800
C3217       C  0.67046531  0.02272401  0.12041195    -0.05800
H3218       H  0.70821490  0.01949952  0.16429939     0.14900
C3219       C  0.66161057  0.48980953  0.25699657    -0.16000
H3220       H  0.62628129  0.48792485  0.21052792     0.09200
H3221       H  0.57673389  0.56217780  0.12247384     0.07000
H3222       H  0.55839816  0.54736942  0.15528614     0.08200
H3223       H  0.54873913  0.54322141  0.11319806     0.07300
H3224       H  0.63634839  0.94675159  0.15072872     0.02200
H3225       H  0.65431607  0.96147050  0.11739561     0.02700
H3226       H  0.62809903  0.93982226  0.10860186     0.06200
H3227       H  0.69008541  0.02954574  0.11423063     0.05100
H3228       H  0.65730241  0.03971608  0.11852741    -0.00600
H3229       H  0.66488490  0.00774198  0.10196862     0.00800
H3230       H  0.64591957  0.50267129  0.26601314     0.04500
H3231       H  0.67827811  0.49404561  0.27275582     0.06400
H3232       H  0.65580353  0.46910658  0.26051148     0.07300
C3233       C  0.88063406  0.50765416  0.16169490    -0.22300
C3234       C  0.85948286  0.99182102  0.15409711     0.09700
C3235       C  0.86026799  0.97594585  0.12563359     0.10100
C3236       C  0.88189481  0.97663458  0.10500162    -0.17200
C3237       C  0.90291348  0.99288682  0.11192970    -0.27600
C3238       C  0.90238699  0.50837665  0.14102947     0.18400
C3239       C  0.83558840  0.99449489  0.17391456     0.12400
C3240       C  0.83799157  0.95871584  0.11657462    -0.12000
H3241       H  0.88221286  0.96465607  0.08291452     0.12700
C3242       C  0.92388679  0.52680025  0.14941755    -0.22800
H3243       H  0.87972791  0.52010000  0.18333862     0.08300
C3244       C  0.83030364  0.97879125  0.20170611     0.04600
C3245       C  0.80684285  0.98185537  0.21859655    -0.20100
C3246       C  0.78855815  0.00030106  0.20830671    -0.12300
C3247       C  0.79452961  0.51678220  0.18111223     0.13300
C3248       C  0.81768380  0.51327516  0.16406509    -0.22800
C3249       C  0.84921974  0.95855953  0.21310951    -0.05800
H3250       H  0.80243138  0.96919712  0.23924590     0.14900
C3251       C  0.77744648  0.53875504  0.16968706    -0.16000
H3252       H  0.82195211  0.52550451  0.14292776     0.09200
H3253       H  0.94171250  0.51560403  0.15400347     0.07000
H3254       H  0.91961779  0.53846719  0.17191791     0.08200
H3255       H  0.92694003  0.54058955  0.12869442     0.07300
H3256       H  0.82062590  0.97084629  0.11280650     0.02200
H3257       H  0.83429687  0.94443237  0.13658819     0.02700
H3258       H  0.84174042  0.94759166  0.09352449     0.06200
H3259       H  0.84211448  0.94784379  0.23510506     0.05100
H3260       H  0.86754849  0.96820248  0.21964713    -0.00600
H3261       H  0.85276866  0.94409643  0.19316577     0.00800
H3262       H  0.78876952  0.55707495  0.16780371     0.04500
H3263       H  0.76146620  0.54300179  0.18686585     0.06400
H3264       H  0.76961751  0.53395116  0.14499398     0.07300
C3265       C  0.46746219  0.86446851  0.12381969    -0.22300
C3266       C  0.98573908  0.86226699  0.14880853     0.09700
C3267       C  0.00325185  0.88296750  0.15393470     0.10100
C3268       C  0.00297249  0.90475297  0.13276914    -0.17200
C3269       C  0.98561199  0.90629761  0.10653340    -0.27600
C3270       C  0.46703166  0.88629305  0.10276146     0.18400
C3271       C  0.98790292  0.83723126  0.16728175     0.12400
C3272       C  0.02227335  0.88200923  0.18172934    -0.12000
H3273       H  0.01691960  0.92022743  0.13604011     0.12700
C3274       C  0.44635660  0.88806720  0.07701637    -0.22800
H3275       H  0.45390528  0.84868107  0.12021890     0.08300
C3276       C  0.97061774  0.83000816  0.19255572     0.04600
C3277       C  0.97518089  0.80702464  0.21076637    -0.20100
C3278       C  0.99679574  0.79141551  0.20447828    -0.12300
C3279       C  0.51320235  0.79794171  0.17784012     0.13300
C3280       C  0.50842220  0.82063383  0.15957118    -0.22800
C3281       C  0.94805089  0.84704927  0.20116609    -0.05800
H3282       H  0.96264563  0.80200798  0.23115283     0.14900
C3283       C  0.53610853  0.78167453  0.16805025    -0.16000
H3284       H  0.52128756  0.82585526  0.13959723     0.09200
H3285       H  0.93565815  0.90669665  0.07998855     0.07000
H3286       H  0.43242711  0.87174041  0.07916730     0.08200
H3287       H  0.45482879  0.88711501  0.05195059     0.07300
H3288       H  0.53541387  0.86510396  0.17843285     0.02200
H3289       H  0.01193803  0.88002698  0.20556249     0.02700
H3290       H  0.03409539  0.90004278  0.18281415     0.06200
H3291       H  0.93679726  0.83885211  0.22200759     0.05100
H3292       H  0.93517410  0.84872586  0.17959059    -0.00600
H3293       H  0.95480105  0.86684343  0.20835824     0.00800
H3294       H  0.53423883  0.77560904  0.14186951     0.04500
H3295       H  0.53824534  0.76365636  0.18288848     0.06400
H3296       H  0.55379431  0.79350160  0.17077256     0.07300
C3297       C  0.51362555  0.62327736  0.13416470    -0.22300
C3298       C  0.99297528  0.62836420  0.15533239     0.09700
C3299       C  0.97156081  0.61152204  0.15509824     0.10100
C3300       C  0.97156211  0.58957300  0.13402551    -0.17200
C3301       C  0.99210235  0.58469730  0.11241367    -0.27600
C3302       C  0.51337227  0.60188961  0.11245368     0.18400
C3303       C  0.99384008  0.65227683  0.17615175     0.12400
C3304       C  0.94831728  0.61742370  0.17592926    -0.12000
H3305       H  0.95498188  0.57692235  0.13328661     0.12700
C3306       C  0.53596832  0.59861846  0.08955615    -0.22800
H3307       H  0.52992449  0.63641028  0.13418853     0.08300
C3308       C  0.50206157  0.65145904  0.20916483     0.04600
C3309       C  0.50353459  0.67481831  0.22730262    -0.20100
C3310       C  0.99832250  0.69928086  0.21283677    -0.12300
C3311       C  0.99041137  0.70003044  0.17948725     0.13300
C3312       C  0.98800129  0.67645871  0.16175588    -0.22800
C3313       C  0.51060081  0.62618051  0.22472027    -0.05800
H3314       H  0.50980774  0.67408427  0.25272045     0.14900
C3315       C  0.98607503  0.72541193  0.16160961    -0.16000
H3316       H  0.98224693  0.67689129  0.13612171     0.09200
H3317       H  0.55389540  0.59856390  0.10407513     0.07000
H3318       H  0.53669817  0.61532002  0.07213216     0.08200
H3319       H  0.53538680  0.58022631  0.07507757     0.07300
H3320       H  0.94055709  0.63693049  0.16925199     0.02200
H3321       H  0.95344493  0.61751611  0.20241503     0.02700
H3322       H  0.93297605  0.60268774  0.17221205     0.06200
H3323       H  0.51690713  0.62911980  0.25057817     0.05100
H3324       H  0.52695994  0.61795786  0.21053310    -0.00600
H3325       H  0.49473476  0.61179763  0.22482413     0.00800
H3326       H  0.98243943  0.72220283  0.13495359     0.04500
H3327       H  0.00326504  0.73791313  0.16370836     0.06400
H3328       H  0.96917967  0.73571403  0.17181897     0.07300
C3329       C  0.65532179  0.85541956  0.96822220    -0.22300
C3330       C  0.63864378  0.85800020  0.99511683     0.09700
C3331       C  0.64048734  0.84072598  0.02203550     0.10100
C3332       C  0.65930556  0.82123942  0.02161960    -0.17200
C3333       C  0.67591162  0.81843007  0.99462466    -0.27600
C3334       C  0.67384377  0.83559970  0.96743910     0.18400
C3335       C  0.61828501  0.87788898  0.99387846     0.12400
C3336       C  0.62242951  0.84275266  0.05097688    -0.12000
H3337       H  0.66097292  0.80792863  0.04226946     0.12700
C3338       C  0.69034675  0.83318571  0.93702962    -0.22800
H3339       H  0.65349284  0.86859650  0.94744774     0.08300
C3340       C  0.62226726  0.90359472  0.00518149     0.04600
C3341       C  0.60169708  0.92115071  0.00549517    -0.20100
C3342       C  0.57715912  0.91355893  0.99483669    -0.12300
C3343       C  0.57351629  0.88769571  0.98276508     0.13300
C3344       C  0.59422998  0.87030465  0.98240823    -0.22800
C3345       C  0.64811548  0.91235442  0.01724140    -0.05800
H3346       H  0.60480391  0.94081739  0.01468531     0.14900
C3347       C  0.54820957  0.87807691  0.96977564    -0.16000
H3348       H  0.59160781  0.85042041  0.97367081     0.09200
H3349       H  0.70169557  0.85136641  0.93378676     0.07000
H3350       H  0.67796711  0.83040354  0.91511782     0.08200
H3351       H  0.70377689  0.81642907  0.93800961     0.07300
H3352       H  0.60244566  0.83976725  0.04257989     0.02200
H3353       H  0.62409327  0.86239172  0.06251321     0.02700
H3354       H  0.62666648  0.82781494  0.07003442     0.06200
H3355       H  0.64788738  0.93312960  0.02535932     0.05100
H3356       H  0.66243988  0.91033287  0.99711230    -0.00600
H3357       H  0.65407135  0.90014475  0.03846604     0.00800
H3358       H  0.54969853  0.85811032  0.95905467     0.04500
H3359       H  0.54143851  0.89134011  0.95012763     0.06400
H3360       H  0.53388907  0.87721413  0.99001036     0.07300
C3361       C  0.89001956  0.86570071  0.98140064    -0.22300
C3362       C  0.86688298  0.87073474  0.99761281     0.09700
C3363       C  0.86298146  0.89468995  0.01401739     0.10100
C3364       C  0.88260869  0.91325516  0.01401218    -0.17200
C3365       C  0.90604409  0.90836567  0.99796840    -0.27600
C3366       C  0.90976628  0.88421089  0.98126855     0.18400
C3367       C  0.84685772  0.85059704  0.99688236     0.12400
C3368       C  0.83804100  0.90070171  0.03121445    -0.12000
H3369       H  0.87965265  0.93164646  0.02684597     0.12700
C3370       C  0.93399005  0.87787589  0.96251675    -0.22800
H3371       H  0.89253704  0.84716741  0.96873048     0.08300
C3372       C  0.83008439  0.84839561  0.96993660     0.04600
C3373       C  0.81106654  0.82916215  0.97056912    -0.20100
C3374       C  0.80857525  0.81227413  0.99757125    -0.12300
C3375       C  0.82569096  0.81426710  0.02438287     0.13300
C3376       C  0.84468297  0.83352694  0.02365932    -0.22800
C3377       C  0.83212453  0.86651996  0.94081689    -0.05800
H3378       H  0.79790981  0.82736210  0.95009696     0.14900
C3379       C  0.82430903  0.79674653  0.05418577    -0.16000
H3380       H  0.85778855  0.83539379  0.04419474     0.09200
H3381       H  0.93796955  0.89336998  0.94414762     0.07000
H3382       H  0.93250372  0.85900137  0.94902428     0.08200
H3383       H  0.95031871  0.87617918  0.97976957     0.07300
H3384       H  0.83459369  0.88625107  0.05112452     0.02200
H3385       H  0.82208476  0.89976606  0.01326524     0.02700
H3386       H  0.83808781  0.92054459  0.04240416     0.06200
H3387       H  0.81732551  0.86221108  0.92199888     0.05100
H3388       H  0.85121132  0.86436182  0.92900582    -0.00600
H3389       H  0.82959495  0.88708447  0.94909223     0.00800
H3390       H  0.84264170  0.78594840  0.05674925     0.04500
H3391       H  0.80863618  0.78220498  0.05288943     0.06400
H3392       H  0.82118177  0.80884250  0.07660885     0.07300
C3393       C  0.85737017  0.59635831  0.01564079    -0.22300
C3394       C  0.86248168  0.62039267  0.00063868     0.09700
C3395       C  0.88688981  0.62557904  0.98743646     0.10100
C3396       C  0.90554466  0.60595294  0.98826382    -0.17200
C3397       C  0.90051784  0.58153405  0.00284659    -0.27600
C3398       C  0.87614547  0.57684357  0.01728412     0.18400
C3399       C  0.84200904  0.64008314  0.99969019     0.12400
C3400       C  0.89333851  0.65195748  0.97309541    -0.12000
H3401       H  0.92417581  0.60975361  0.97744798     0.12700
C3402       C  0.86991135  0.55193690  0.03556472    -0.22800
H3403       H  0.83858989  0.59297941  0.02627391     0.08300
C3404       C  0.82546957  0.64205004  0.97244315     0.04600
C3405       C  0.80617956  0.66106199  0.97282887    -0.20100
C3406       C  0.80319960  0.67787781  0.99990252    -0.12300
C3407       C  0.81972405  0.67575758  0.02727205     0.13300
C3408       C  0.83899780  0.65679120  0.02678087    -0.22800
C3409       C  0.82818507  0.62408586  0.94313901    -0.05800
H3410       H  0.79350165  0.66303231  0.95189471     0.14900
C3411       C  0.81756631  0.69312167  0.05725334    -0.16000
H3412       H  0.85179863  0.65500923  0.04763371     0.09200
H3413       H  0.86958981  0.53510199  0.01826780     0.07000
H3414       H  0.85079523  0.55289598  0.04759039     0.08200
H3415       H  0.88430312  0.54851433  0.05516849     0.07300
H3416       H  0.89102701  0.66727239  0.99233528     0.02200
H3417       H  0.88044190  0.65643196  0.95220105     0.02700
H3418       H  0.91337696  0.65271456  0.96392395     0.06200
H3419       H  0.81372503  0.62842624  0.92391660     0.05100
H3420       H  0.82561982  0.60347485  0.95107326    -0.00600
H3421       H  0.84745356  0.62632896  0.93190980     0.00800
H3422       H  0.81474430  0.68085052  0.07951999     0.04500
H3423       H  0.80134522  0.70705002  0.05598677     0.06400
H3424       H  0.83547722  0.70457923  0.06008554     0.07300
C3425       C  0.58746047  0.63034410  0.98491787    -0.22300
C3426       C  0.61029829  0.62545160  0.00172576     0.09700
C3427       C  0.61370171  0.60163609  0.01855391     0.10100
C3428       C  0.59405724  0.58304327  0.01812592    -0.17200
C3429       C  0.57109375  0.58772344  0.00123538    -0.27600
C3430       C  0.56773465  0.61174227  0.98431609     0.18400
C3431       C  0.63068780  0.64536679  0.00089869     0.12400
C3432       C  0.63818260  0.59574552  0.03659070    -0.12000
H3433       H  0.59663519  0.56473207  0.03114789     0.12700
C3434       C  0.54402548  0.61758558  0.96451193    -0.22800
H3435       H  0.58523848  0.64872045  0.97193429     0.08300
C3436       C  0.64797370  0.64689100  0.97420748     0.04600
C3437       C  0.66752813  0.66561875  0.97496951    -0.20100
C3438       C  0.67009184  0.68272553  0.00184013    -0.12300
C3439       C  0.65268589  0.68119007  0.02855767     0.13300
C3440       C  0.63305236  0.66256580  0.02761558    -0.22800
C3441       C  0.64583535  0.62865232  0.94513079    -0.05800
H3442       H  0.68091733  0.66698187  0.95456521     0.14900
C3443       C  0.65448543  0.69853702  0.05854505    -0.16000
H3444       H  0.61967975  0.66119194  0.04805073     0.09200
H3445       H  0.54562777  0.63648696  0.95118935     0.07000
H3446       H  0.52710302  0.61899302  0.98102191     0.08200
H3447       H  0.54094688  0.60195258  0.94588756     0.07300
H3448       H  0.64116539  0.61041932  0.05641260     0.02200
H3449       H  0.65458548  0.59643818  0.01913290     0.02700
H3450       H  0.63779111  0.57603639  0.04807757     0.06200
H3451       H  0.66108263  0.63232860  0.92655999     0.05100
H3452       H  0.62703080  0.63139388  0.93297722    -0.00600
H3453       H  0.64754504  0.60806431  0.95352296     0.00800
H3454       H  0.63682835  0.71052474  0.06071856     0.04500
H3455       H  0.67112693  0.71194888  0.05780914     0.06400
H3456       H  0.65634437  0.68622567  0.08092569     0.07300
C3457       C  0.85632485  0.51100950  0.87973098    -0.22300
C3458       C  0.85923494  0.99988788  0.84831216     0.09700
C3459       C  0.88346005  0.99059251  0.83827731     0.10100
C3460       C  0.90379562  0.99048781  0.86103462    -0.17200
C3461       C  0.90057771  0.50035699  0.89336065    -0.27600
C3462       C  0.87669554  0.51188229  0.90209152     0.18400
C3463       C  0.83638615  0.99900164  0.82670134     0.12400
C3464       C  0.88783796  0.98129591  0.80347723    -0.12000
H3465       H  0.92219582  0.98263011  0.85358745     0.12700
C3466       C  0.87256908  0.52622975  0.93426663    -0.22800
H3467       H  0.83788441  0.51910237  0.88668892     0.08300
C3468       C  0.81914671  0.97778429  0.82794690     0.04600
C3469       C  0.79561070  0.97962332  0.81150858    -0.20100
C3470       C  0.78904463  0.00190685  0.79315496    -0.12300
C3471       C  0.80619996  0.52324793  0.79247833     0.13300
C3472       C  0.82985422  0.52129510  0.80866925    -0.22800
C3473       C  0.82537344  0.95343334  0.84719057    -0.05800
H3474       H  0.78197124  0.96374937  0.81356414     0.14900
C3475       C  0.79945754  0.54920304  0.77753117    -0.16000
H3476       H  0.84277816  0.53789312  0.80865344     0.09200
H3477       H  0.87271038  0.51233145  0.95521313     0.07000
H3478       H  0.85382607  0.53648631  0.93495523     0.08200
H3479       H  0.88769856  0.54125939  0.93756966     0.07300
H3480       H  0.88378025  0.99751680  0.78608407     0.02200
H3481       H  0.87497318  0.96462001  0.79785622     0.02700
H3482       H  0.90791259  0.97483688  0.79948038     0.06200
H3483       H  0.80985103  0.93865460  0.84546336     0.05100
H3484       H  0.82810680  0.95840633  0.87358765    -0.00600
H3485       H  0.84319949  0.94446378  0.83738339     0.00800
H3486       H  0.80146679  0.56482776  0.79640412     0.04500
H3487       H  0.77943532  0.54991271  0.76883396     0.06400
H3488       H  0.81275690  0.55349585  0.75683614     0.07300
C3489       C  0.61533789  0.97518011  0.87089282    -0.22300
C3490       C  0.61940574  0.49640839  0.84950245     0.09700
C3491       C  0.60062492  0.51623644  0.84732054     0.10100
C3492       C  0.57866216  0.51498609  0.86749002    -0.17200
C3493       C  0.57515310  0.49451364  0.89003968    -0.27600
C3494       C  0.59339575  0.97385544  0.89100346     0.18400
C3495       C  0.64393408  0.49779546  0.83061771     0.12400
C3496       C  0.60422537  0.53920079  0.82460774    -0.12000
H3497       H  0.56475848  0.53067474  0.86674031     0.12700
C3498       C  0.59011360  0.95005600  0.91256378    -0.22800
H3499       H  0.62954113  0.95974252  0.87219808     0.08300
C3500       C  0.66662452  0.50688988  0.84530476     0.04600
C3501       C  0.68957147  0.50709456  0.82701337    -0.20100
C3502       C  0.69079195  0.99862423  0.79376799    -0.12300
C3503       C  0.66708642  0.99158740  0.77847290     0.13300
C3504       C  0.64444959  0.99037284  0.79739415    -0.22800
C3505       C  0.66645946  0.51707080  0.88020201    -0.05800
H3506       H  0.70625803  0.51496032  0.83895688     0.14900
C3507       C  0.66407729  0.98571942  0.74221656    -0.16000
H3508       H  0.62675841  0.98418642  0.78585801     0.09200
H3509       H  0.60591890  0.94910590  0.93073350     0.07000
H3510       H  0.59066654  0.93214583  0.89701981     0.08200
H3511       H  0.57165202  0.94989096  0.92608979     0.07300
H3512       H  0.60580340  0.53224198  0.79874839     0.02200
H3513       H  0.62194064  0.54991769  0.83131086     0.02700
H3514       H  0.58789787  0.55308663  0.82614712     0.06200
H3515       H  0.68570213  0.52382673  0.88802700     0.05100
H3516       H  0.66021196  0.50141434  0.89734543    -0.00600
H3517       H  0.65306372  0.53388244  0.88221717     0.00800
H3518       H  0.65780870  0.96512336  0.73893876     0.04500
H3519       H  0.68151387  0.98876160  0.72746532     0.06400
H3520       H  0.64926271  0.99884200  0.73171769     0.00900
C3521       C  0.50723921  0.61527268  0.85178608    -0.22300
C3522       C  0.98974640  0.63579937  0.85678019     0.09700
C3523       C  0.97075702  0.63327105  0.88143569     0.10100
C3524       C  0.96985625  0.61043380  0.90069104    -0.17200
C3525       C  0.98741249  0.58989672  0.89586743    -0.27600
C3526       C  0.50646678  0.59247351  0.87120283     0.18400
C3527       C  0.99180658  0.65980846  0.83607465     0.12400
C3528       C  0.95186520  0.65495325  0.88803440    -0.12000
H3529       H  0.95550348  0.60869930  0.91993873     0.12700
C3530       C  0.52680307  0.57190113  0.86644343    -0.22800
H3531       H  0.52183227  0.61732046  0.83290641     0.08300
C3532       C  0.51168874  0.67816406  0.84046337     0.04600
C3533       C  0.51330279  0.69997542  0.81945875    -0.20100
C3534       C  0.99570374  0.70394637  0.79380201    -0.12300
C3535       C  0.97543863  0.68568143  0.78992381     0.13300
C3536       C  0.97378427  0.66400572  0.81115314    -0.22800
C3537       C  0.53133320  0.67468545  0.86717684    -0.05800
H3538       H  0.52891832  0.71372677  0.82246909     0.14900
C3539       C  0.95584550  0.68734673  0.76300404    -0.16000
H3540       H  0.95858229  0.64982955  0.80770315     0.09200
H3541       H  0.54096370  0.57765312  0.84730016     0.07000
H3542       H  0.51792873  0.55319814  0.85857121     0.08200
H3543       H  0.53726537  0.56889015  0.88991206     0.07300
H3544       H  0.94002062  0.65842195  0.86583452     0.02200
H3545       H  0.96226658  0.67319454  0.89445938     0.02700
H3546       H  0.93876802  0.65010561  0.90875915     0.06200
H3547       H  0.54523653  0.69111446  0.86766777     0.05100
H3548       H  0.54224061  0.65633293  0.86301548    -0.00600
H3549       H  0.52167253  0.67378141  0.89156982     0.00800
H3550       H  0.95737478  0.66984606  0.74683689     0.04500
H3551       H  0.95815711  0.70478440  0.74759604     0.06400
H3552       H  0.93636105  0.68801153  0.77399487     0.07300
C3553       C  0.46605398  0.88008007  0.85266592    -0.22300
C3554       C  0.98788336  0.86413365  0.84992710     0.09700
C3555       C  0.01073180  0.87204994  0.86561957     0.10100
C3556       C  0.01068223  0.89456195  0.88557720    -0.17200
C3557       C  0.98864421  0.90994507  0.88940832    -0.27600
C3558       C  0.46627797  0.90310723  0.87193466     0.18400
C3559       C  0.98724037  0.84030741  0.82861547     0.12400
C3560       C  0.03540785  0.85724376  0.86051886    -0.12000
H3561       H  0.02806680  0.90044409  0.89794076     0.12700
C3562       C  0.44273992  0.92010448  0.87357255    -0.22800
H3563       H  0.44883676  0.87451714  0.83960526     0.08300
C3564       C  0.48601053  0.81472518  0.84182468     0.04600
C3565       C  0.48938188  0.79293508  0.82077987    -0.20100
C3566       C  0.99375862  0.79622431  0.78684762    -0.12300
C3567       C  0.99267616  0.82179595  0.77342700     0.13300
C3568       C  0.98953430  0.84344792  0.79447576    -0.22800
C3569       C  0.48101828  0.81049381  0.87802234    -0.05800
H3570       H  0.48950900  0.77335466  0.83099533     0.14900
C3571       C  0.99483504  0.82648869  0.73688528    -0.16000
H3572       H  0.98981882  0.86306421  0.78436625     0.09200
H3573       H  0.43604204  0.92213354  0.89941465     0.07000
H3574       H  0.42684437  0.91185479  0.85872911     0.08200
H3575       H  0.44731245  0.93982121  0.86377150     0.07300
H3576       H  0.04046182  0.85713202  0.83391317     0.02200
H3577       H  0.03343467  0.83678186  0.86913011     0.02700
H3578       H  0.05149103  0.86633636  0.87421875     0.06200
H3579       H  0.48032487  0.78935238  0.88424288     0.05100
H3580       H  0.46234181  0.81938075  0.88488440    -0.00600
H3581       H  0.49625952  0.81968269  0.89303065     0.00800
H3582       H  0.99051064  0.84713819  0.73048944     0.04500
H3583       H  0.98110416  0.81381438  0.72346892     0.06400
H3584       H  0.01458344  0.82239116  0.72838957     0.07300
C3585       C  0.86480035  0.73597239  0.65878015    -0.22300
C3586       C  0.88647708  0.75055488  0.64982483     0.09700
C3587       C  0.88611610  0.76555530  0.62072404     0.10100
C3588       C  0.86409277  0.76560297  0.60117720    -0.17200
C3589       C  0.84241678  0.75066838  0.60956125    -0.27600
C3590       C  0.84271368  0.73577280  0.63898425     0.18400
C3591       C  0.90986723  0.74895013  0.67031976     0.12400
C3592       C  0.90921333  0.78096757  0.60974598    -0.12000
H3593       H  0.86398939  0.77709807  0.57874723     0.12700
C3594       C  0.82043408  0.71878852  0.64895452    -0.22800
H3595       H  0.86538754  0.72434175  0.68107104     0.08300
C3596       C  0.91541909  0.76782321  0.69467866     0.04600
C3597       C  0.93872069  0.76637021  0.71184083    -0.20100
C3598       C  0.95634490  0.74617679  0.70558505    -0.12300
C3599       C  0.94996660  0.72640737  0.68239668     0.13300
C3600       C  0.92704283  0.72837612  0.66466884    -0.22800
C3601       C  0.89659712  0.78925906  0.70272799    -0.05800
H3602       H  0.94335745  0.78125771  0.72991690     0.14900
C3603       C  0.96620026  0.70240929  0.67655770    -0.16000
H3604       H  0.92240570  0.71359479  0.64642301     0.09200
H3605       H  0.80335527  0.73112781  0.65386273     0.07000
H3606       H  0.82453545  0.70757671  0.67175492     0.08200
H3607       H  0.81612657  0.70452802  0.62904034     0.07300
H3608       H  0.92571666  0.76757318  0.60607443     0.02200
H3609       H  0.91422925  0.79581182  0.62861339     0.02700
H3610       H  0.90572616  0.79135452  0.58615873     0.06200
H3611       H  0.90395062  0.80253397  0.72221121     0.05100
H3612       H  0.87841861  0.78047623  0.71164470    -0.00600
H3613       H  0.89260969  0.80115415  0.68050120     0.00800
H3614       H  0.95439772  0.68463022  0.68064944     0.04500
H3615       H  0.98275880  0.70099454  0.69338404     0.06400
H3616       H  0.97332001  0.70229680  0.65074627     0.07300
C3617       C  0.58029965  0.76633492  0.66339582    -0.22300
C3618       C  0.60009421  0.74898471  0.67104722     0.09700
C3619       C  0.59757499  0.73288632  0.69895972     0.10100
C3620       C  0.57452518  0.73300633  0.71705629    -0.17200
C3621       C  0.55360560  0.74925330  0.70852710    -0.27600
C3622       C  0.55755700  0.76735725  0.68210288     0.18400
C3623       C  0.62337205  0.74827325  0.64962795     0.12400
C3624       C  0.61957842  0.71610338  0.71027283    -0.12000
H3625       H  0.57370823  0.72079540  0.73860103     0.12700
C3626       C  0.53880626  0.78849307  0.67252515    -0.22800
H3627       H  0.58272758  0.77946617  0.64264958     0.08300
C3628       C  0.62626200  0.72938662  0.62441929     0.04600
C3629       C  0.64812453  0.72996686  0.60404359    -0.20100
C3630       C  0.66717636  0.74916143  0.60787223    -0.12300
C3631       C  0.66390306  0.76845702  0.63272931     0.13300
C3632       C  0.64226489  0.76750802  0.65352641    -0.22800
C3633       C  0.60591586  0.70905452  0.61838629    -0.05800
H3634       H  0.65022903  0.71548279  0.58465346     0.14900
C3635       C  0.68188612  0.79118605  0.63695497    -0.16000
H3636       H  0.63975610  0.78235019  0.67240917     0.09200
H3637       H  0.53224001  0.78511303  0.64687660     0.07000
H3638       H  0.54845783  0.80782825  0.67373806     0.08200
H3639       H  0.52178445  0.78985327  0.68848852     0.07300
H3640       H  0.63627359  0.72872990  0.71599519     0.02200
H3641       H  0.62511198  0.70196671  0.69074844     0.02700
H3642       H  0.61465617  0.70481915  0.73278100     0.06200
H3643       H  0.61093447  0.69608468  0.59732604     0.05100
H3644       H  0.58746866  0.71882192  0.61274024    -0.00600
H3645       H  0.60339467  0.69661295  0.64050629     0.00800
H3646       H  0.67106799  0.80979890  0.63468608     0.04500
H3647       H  0.69727694  0.79163685  0.61817297     0.06400
H3648       H  0.69057990  0.79033723  0.66184947     0.07300
C3649       C  0.72689280  0.57529959  0.66709593    -0.22300
C3650       C  0.75066704  0.58779373  0.66565628     0.09700
C3651       C  0.77171656  0.57655023  0.68204339     0.10100
C3652       C  0.76811952  0.55369072  0.70089701    -0.17200
C3653       C  0.74379348  0.54220612  0.70460992    -0.27600
C3654       C  0.72339271  0.55224644  0.68527437     0.18400
C3655       C  0.75321119  0.61152644  0.64475568     0.12400
C3656       C  0.79784819  0.58885065  0.67981020    -0.12000
H3657       H  0.78434649  0.54512231  0.71314151     0.12700
C3658       C  0.69824123  0.53827147  0.68111898    -0.22800
H3659       H  0.71108343  0.58317632  0.65298567     0.08300
C3660       C  0.75663562  0.60936925  0.61046098     0.04600
C3661       C  0.75711473  0.63206489  0.59117248    -0.20100
C3662       C  0.75426044  0.65733779  0.60501650    -0.12300
C3663       C  0.75099486  0.65935564  0.63976023     0.13300
C3664       C  0.75054809  0.63639924  0.65905492    -0.22800
C3665       C  0.75967734  0.58301421  0.59410391    -0.05800
H3666       H  0.75957114  0.62975306  0.56482082     0.14900
C3667       C  0.74741673  0.68529077  0.65689576    -0.16000
H3668       H  0.74770732  0.63778101  0.68547796     0.09200
H3669       H  0.69386804  0.53630774  0.65446137     0.07000
H3670       H  0.68268601  0.54962760  0.69319693     0.08200
H3671       H  0.69870976  0.51814387  0.69096643     0.07300
H3672       H  0.79711697  0.60907148  0.68983800     0.02200
H3673       H  0.80419869  0.58955971  0.65368347     0.02700
H3674       H  0.81228139  0.57765056  0.69402378     0.06200
H3675       H  0.76245803  0.58479051  0.56704314     0.05100
H3676       H  0.74233462  0.57096067  0.59848257    -0.00600
H3677       H  0.77660127  0.57278554  0.60436605     0.00800
H3678       H  0.74465739  0.68291773  0.68388006     0.04500
H3679       H  0.73020358  0.69532888  0.64710943     0.06400
H3680       H  0.76461046  0.69768642  0.65319732     0.07300
C3681       C  0.75506189  0.85853593  0.66460723    -0.22300
C3682       C  0.76138499  0.88324077  0.65198063     0.09700
C3683       C  0.77040112  0.88519964  0.61935231     0.10100
C3684       C  0.77051388  0.86290791  0.59908328    -0.17200
C3685       C  0.76250805  0.83818867  0.61070284    -0.27600
C3686       C  0.75616161  0.83584893  0.64472945     0.18400
C3687       C  0.75729012  0.90701171  0.67267510     0.12400
C3688       C  0.77986885  0.91090118  0.60588530    -0.12000
H3689       H  0.77676815  0.86501344  0.57373605     0.12700
C3690       C  0.75062960  0.80983643  0.66059155    -0.22800
H3691       H  0.74896329  0.85708562  0.69010524     0.08300
C3692       C  0.73430701  0.92144918  0.67081080     0.04600
C3693       C  0.73097797  0.94369632  0.69081205    -0.20100
C3694       C  0.74994676  0.95187028  0.71306120    -0.12300
C3695       C  0.77307764  0.93740208  0.71471450     0.13300
C3696       C  0.77648675  0.91525285  0.69436566    -0.22800
C3697       C  0.71305880  0.91304181  0.64813311    -0.05800
H3698       H  0.71319754  0.95458489  0.68950820     0.14900
C3699       C  0.79352617  0.94398070  0.73927627    -0.16000
H3700       H  0.79402270  0.90397735  0.69578561     0.09200
H3701       H  0.73424368  0.80030870  0.64838521     0.07000
H3702       H  0.74579463  0.81192345  0.68715381     0.08200
H3703       H  0.76774275  0.79703090  0.65864335     0.07300
H3704       H  0.79616292  0.91794650  0.62097828     0.02200
H3705       H  0.76432977  0.92569128  0.60663842     0.02700
H3706       H  0.78657841  0.90902208  0.57997458     0.06200
H3707       H  0.69628094  0.92633226  0.64987083     0.05100
H3708       H  0.70665182  0.89301008  0.65473815    -0.00600
H3709       H  0.71989819  0.91305778  0.62220819     0.00800
H3710       H  0.80989953  0.93015232  0.73782825     0.04500
H3711       H  0.78529244  0.94254762  0.76433931     0.06400
H3712       H  0.80111818  0.96389890  0.73486611     0.07300
C3713       C  0.85661465  0.61739935  0.51326772    -0.22300
C3714       C  0.88131338  0.62429654  0.50318185     0.09700
C3715       C  0.88666338  0.65025019  0.49401754     0.10100
C3716       C  0.86692923  0.66879672  0.49466117    -0.17200
C3717       C  0.84170116  0.66196469  0.50346816    -0.27600
C3718       C  0.83668049  0.63582987  0.51370048     0.18400
C3719       C  0.90124282  0.60385204  0.50193334     0.12400
C3720       C  0.91320817  0.65832726  0.48353675    -0.12000
H3721       H  0.87133255  0.68874972  0.48797358     0.12700
C3722       C  0.81083456  0.62712569  0.52621108    -0.22800
H3723       H  0.85294747  0.59737586  0.52069263     0.08300
C3724       C  0.91547551  0.59705088  0.53009998     0.04600
C3725       C  0.93413901  0.57743081  0.52759166    -0.20100
C3726       C  0.93889848  0.56477905  0.49749284    -0.12300
C3727       C  0.92482006  0.57181698  0.46919801     0.13300
C3728       C  0.90598982  0.59120836  0.47186202    -0.22800
C3729       C  0.91124388  0.61081866  0.56251856    -0.05800
H3730       H  0.94532603  0.57213463  0.54901131     0.14900
C3731       C  0.92951880  0.55965006  0.43583532    -0.16000
H3732       H  0.89509275  0.59672103  0.45026850     0.09200
H3733       H  0.80473799  0.63988640  0.54698518     0.07000
H3734       H  0.81123593  0.60668097  0.53544260     0.08200
H3735       H  0.79652930  0.62782992  0.50611104     0.07300
H3736       H  0.91917506  0.64693909  0.46147640     0.02200
H3737       H  0.92690590  0.65460707  0.50383770     0.02700
H3738       H  0.91413950  0.67944032  0.47721961     0.06200
H3739       H  0.92413439  0.60320716  0.58197814     0.05100
H3740       H  0.89117719  0.60797445  0.57083730    -0.00600
H3741       H  0.91501881  0.63206768  0.55962453     0.00800
H3742       H  0.91163380  0.55036083  0.42690666     0.04500
H3743       H  0.94468562  0.54448433  0.43607547     0.06400
H3744       H  0.93539114  0.57509340  0.41814372     0.07300
C3745       C  0.60844858  0.59063251  0.45913232    -0.22300
C3746       C  0.61032238  0.60802632  0.48567153     0.09700
C3747       C  0.59190768  0.60760666  0.51114806     0.10100
C3748       C  0.57249550  0.58876833  0.51024846    -0.17200
C3749       C  0.57103535  0.57073897  0.48420744    -0.27600
C3750       C  0.58884407  0.57203874  0.45791588     0.18400
C3751       C  0.63173541  0.62664028  0.48631771     0.12400
C3752       C  0.59286738  0.62693074  0.53923755    -0.12000
H3753       H  0.55865021  0.58773899  0.53017584     0.12700
C3754       C  0.58769740  0.55420280  0.42832689    -0.22800
H3755       H  0.62246300  0.59149214  0.43937424     0.08300
C3756       C  0.65450007  0.62092024  0.50332466     0.04600
C3757       C  0.67367000  0.63998124  0.50509535    -0.20100
C3758       C  0.67054437  0.66447675  0.49000969    -0.12300
C3759       C  0.64821121  0.66948885  0.47122252     0.13300
C3760       C  0.62897907  0.65046956  0.46990779    -0.22800
C3761       C  0.65850467  0.59472519  0.51949485    -0.05800
H3762       H  0.69097502  0.63589589  0.51881356     0.14900
C3763       C  0.64474978  0.69428447  0.45156030    -0.16000
H3764       H  0.61156625  0.65422816  0.45625706     0.09200
H3765       H  0.60545215  0.54229708  0.42696511     0.07000
H3766       H  0.58615933  0.56615507  0.40559802     0.08200
H3767       H  0.57109096  0.54073534  0.42889141     0.07300
H3768       H  0.59165358  0.64716886  0.52946896     0.02200
H3769       H  0.61104886  0.62468806  0.55297874     0.02700
H3770       H  0.57677625  0.62403900  0.55682429     0.06200
H3771       H  0.67748600  0.59346413  0.53161919     0.05100
H3772       H  0.65740301  0.57898161  0.50065129    -0.00600
H3773       H  0.64355106  0.59135267  0.53850156     0.00800
H3774       H  0.62721791  0.69360775  0.43618111     0.04500
H3775       H  0.66134886  0.69707364  0.43475348     0.06400
H3776       H  0.64282198  0.71139452  0.46824260     0.07300
C3777       C  0.60119348  0.90216883  0.52182574    -0.22300
C3778       C  0.61787034  0.90044342  0.49485620     0.09700
C3779       C  0.61431005  0.91656437  0.46713782     0.10100
C3780       C  0.59383049  0.93421872  0.46701162    -0.17200
C3781       C  0.57690468  0.93578214  0.49387552    -0.27600
C3782       C  0.58072994  0.91977791  0.52180098     0.18400
C3783       C  0.63759299  0.87999337  0.49521565     0.12400
C3784       C  0.63190811  0.91486119  0.43770523    -0.12000
H3785       H  0.59083110  0.94674553  0.44584446     0.12700
C3786       C  0.56375045  0.92078839  0.55190026    -0.22800
H3787       H  0.60405257  0.88948767  0.54289648     0.08300
C3788       C  0.66166396  0.88408268  0.50971325     0.04600
C3789       C  0.67921372  0.86339397  0.51043714    -0.20100
C3790       C  0.67304969  0.83864830  0.49732482    -0.12300
C3791       C  0.64873061  0.83483774  0.48256918     0.13300
C3792       C  0.63139005  0.85566565  0.48174205    -0.22800
C3793       C  0.66868888  0.91015046  0.52454147    -0.05800
H3794       H  0.69772244  0.86651840  0.52175075     0.14900
C3795       C  0.64090096  0.80933520  0.46682225    -0.16000
H3796       H  0.61270424  0.85298702  0.47069554     0.09200
H3797       H  0.57552447  0.92513973  0.57396132     0.07000
H3798       H  0.55430619  0.90151717  0.55530147     0.08200
H3799       H  0.54867422  0.93597392  0.55039621     0.07300
H3800       H  0.63118839  0.89485539  0.42703278     0.02200
H3801       H  0.65183406  0.91926733  0.44529958     0.02700
H3802       H  0.62640106  0.92896104  0.41818029     0.06200
H3803       H  0.68842851  0.91005966  0.53461203     0.05100
H3804       H  0.65526666  0.91496566  0.54495146    -0.00600
H3805       H  0.66756690  0.92563886  0.50546402     0.00800
H3806       H  0.62192777  0.81075798  0.45469465     0.04500
H3807       H  0.63938959  0.79377819  0.48576373     0.06400
H3808       H  0.65512175  0.80373906  0.44766846     0.07300
C3809       C  0.88348669  0.85224451  0.47437603    -0.22300
C3810       C  0.88144810  0.87455859  0.49429890     0.09700
C3811       C  0.85926037  0.87856876  0.51357993     0.10100
C3812       C  0.84018852  0.85926169  0.51400634    -0.17200
C3813       C  0.84272124  0.83622188  0.49531089    -0.27600
C3814       C  0.86430214  0.83304808  0.47438659     0.18400
C3815       C  0.90283829  0.89347997  0.49437062     0.12400
C3816       C  0.85555015  0.90333999  0.53326527    -0.12000
H3817       H  0.82336627  0.86200933  0.52936538     0.12700
C3818       C  0.86688134  0.81004439  0.45119413    -0.22800
H3819       H  0.90029301  0.84980547  0.45891088     0.08300
C3820       C  0.92186322  0.89289652  0.51896656     0.04600
C3821       C  0.94174303  0.91135508  0.51804130    -0.20100
C3822       C  0.94325368  0.92991485  0.49266296    -0.12300
C3823       C  0.92468156  0.92975125  0.46733659     0.13300
C3824       C  0.90456050  0.91166825  0.46872037    -0.22800
C3825       C  0.92134679  0.87259758  0.54585595    -0.05800
H3826       H  0.95606898  0.91149338  0.53728793     0.14900
C3827       C  0.92560479  0.94821329  0.43841912    -0.16000
H3828       H  0.89015825  0.91164883  0.44954746     0.09200
H3829       H  0.86898173  0.79160888  0.46529069     0.07000
H3830       H  0.88398417  0.81188017  0.43500861     0.08200
H3831       H  0.84976777  0.80880995  0.43511098     0.07300
H3832       H  0.85588700  0.92045753  0.51646905     0.02200
H3833       H  0.87101928  0.90553994  0.55167815     0.02700
H3834       H  0.83696404  0.90339039  0.54666290     0.06200
H3835       H  0.93787917  0.87469443  0.56277328     0.05100
H3836       H  0.92209977  0.85273042  0.53476597    -0.00600
H3837       H  0.90357072  0.87444914  0.56068897     0.00800
H3838       H  0.92585969  0.93675484  0.41513362     0.04500
H3839       H  0.94278105  0.96091530  0.43833705     0.06400
H3840       H  0.90835713  0.96090995  0.43874783     0.07300
C3841       C  0.58384971  0.72799269  0.33087407    -0.22300
C3842       C  0.60141228  0.74851810  0.32835977     0.09700
C3843       C  0.59640597  0.76915071  0.30642066     0.10100
C3844       C  0.57366761  0.76909275  0.28801542    -0.17200
C3845       C  0.55523294  0.74890082  0.29087290    -0.27600
C3846       C  0.56084718  0.72789206  0.31300910     0.18400
C3847       C  0.62400468  0.74888184  0.35065464     0.12400
C3848       C  0.61487307  0.79164465  0.30292678    -0.12000
H3849       H  0.57073944  0.78543269  0.27189262     0.12700
C3850       C  0.54345208  0.70475370  0.31921679    -0.22800
H3851       H  0.58787117  0.71208381  0.34774021     0.08300
C3852       C  0.62125116  0.75492367  0.38436950     0.04600
C3853       C  0.64295706  0.75540810  0.40459541    -0.20100
C3854       C  0.66777308  0.75001983  0.39229927    -0.12300
C3855       C  0.67030761  0.74349363  0.35834500     0.13300
C3856       C  0.64842183  0.74318408  0.33805878    -0.22800
C3857       C  0.59537117  0.76114713  0.39905427    -0.05800
H3858       H  0.64026721  0.75991026  0.43044723     0.14900
C3859       C  0.69566128  0.73604106  0.34323096    -0.16000
H3860       H  0.65029628  0.73827010  0.31216174     0.09200
H3861       H  0.53919841  0.70339689  0.34599600     0.07000
H3862       H  0.55332244  0.68652203  0.31132496     0.08200
H3863       H  0.52487130  0.70546937  0.30651492     0.07300
H3864       H  0.63361700  0.78433890  0.29381126     0.02200
H3865       H  0.61754728  0.80133781  0.32718611     0.02700
H3866       H  0.60790264  0.80656972  0.28524129     0.06200
H3867       H  0.59668343  0.76620693  0.42563021     0.05100
H3868       H  0.58252788  0.74396219  0.39674348    -0.00600
H3869       H  0.58676857  0.77805719  0.38600028     0.00800
H3870       H  0.69373494  0.73053562  0.31686226     0.04500
H3871       H  0.70374953  0.71893019  0.35641243     0.06400
H3872       H  0.70910118  0.75281350  0.34451927     0.07300
C3873       C  0.89009382  0.73706623  0.37947828    -0.22300
C3874       C  0.88880993  0.75171506  0.35053504     0.09700
C3875       C  0.86580313  0.76466911  0.34245026     0.10100
C3876       C  0.84467833  0.76312281  0.36410477    -0.17200
C3877       C  0.84609491  0.74894799  0.39372320    -0.27600
C3878       C  0.86923100  0.73550527  0.40120517     0.18400
C3879       C  0.91200476  0.75268115  0.32925320     0.12400
C3880       C  0.86354214  0.77993313  0.31092070    -0.12000
H3881       H  0.82718510  0.77346906  0.35819171     0.12700
C3882       C  0.87222100  0.71889151  0.43160606    -0.22800
H3883       H  0.90776786  0.72695210  0.38523167     0.08300
C3884       C  0.93051553  0.77258585  0.33283806     0.04600
C3885       C  0.95315670  0.77147816  0.31400714    -0.20100
C3886       C  0.95822023  0.75037900  0.29263796    -0.12300
C3887       C  0.94000849  0.72999246  0.28999598     0.13300
C3888       C  0.91698099  0.73161534  0.30798159    -0.22800
C3889       C  0.92691615  0.79427231  0.35766989    -0.05800
H3890       H  0.96734405  0.78680227  0.31663525     0.14900
C3891       C  0.94541101  0.70566356  0.27011044    -0.16000
H3892       H  0.90310851  0.71590333  0.30636697     0.09200
H3893       H  0.87228196  0.73138072  0.45400399     0.07000
H3894       H  0.89056283  0.70788940  0.43146333     0.08200
H3895       H  0.85643837  0.70438530  0.43294941     0.07300
H3896       H  0.86687804  0.76672654  0.28957020     0.02200
H3897       H  0.87791915  0.79588739  0.31039037     0.02700
H3898       H  0.84427383  0.78885869  0.30829477     0.06200
H3899       H  0.94323743  0.80818646  0.35742135     0.05100
H3900       H  0.92540507  0.78584091  0.38280674    -0.00600
H3901       H  0.90920743  0.80540271  0.35226012     0.00800
H3902       H  0.93003592  0.69084792  0.27308993     0.04500
H3903       H  0.96363387  0.69667881  0.27839053     0.06400
H3904       H  0.94671166  0.71044524  0.24355337     0.07300
C3905       C  0.75758126  0.90480005  0.29281506    -0.22300
C3906       C  0.75348660  0.90638548  0.32695688     0.09700
C3907       C  0.74683520  0.93074068  0.34115974     0.10100
C3908       C  0.74408888  0.95289121  0.32089927    -0.17200
C3909       C  0.74752735  0.95119127  0.28666208    -0.27600
C3910       C  0.75460311  0.92685821  0.27246078     0.18400
C3911       C  0.75516830  0.88226562  0.34747389     0.12400
C3912       C  0.74185457  0.93309235  0.37763299    -0.12000
H3913       H  0.73834323  0.97142805  0.33166952     0.12700
C3914       C  0.75904105  0.92343262  0.23596129    -0.22800
H3915       H  0.76272664  0.88612842  0.28190467     0.08300
C3916       C  0.73429603  0.86482548  0.35031019     0.04600
C3917       C  0.73576795  0.84362378  0.37231647    -0.20100
C3918       C  0.75757888  0.83953529  0.39172400    -0.12300
C3919       C  0.77875238  0.85664364  0.38829466     0.13300
C3920       C  0.77727676  0.87772676  0.36613572    -0.22800
C3921       C  0.71024614  0.86899028  0.33067191    -0.05800
H3922       H  0.71954457  0.83057992  0.37507208     0.14900
C3923       C  0.80324983  0.85313846  0.40735998    -0.16000
H3924       H  0.79333824  0.89103195  0.36383232     0.09200
H3925       H  0.74528010  0.90887829  0.22607090     0.07000
H3926       H  0.77881870  0.91621968  0.23161670     0.08200
H3927       H  0.75678750  0.94182185  0.22187488     0.07300
H3928       H  0.75937611  0.92778084  0.39147876     0.02200
H3929       H  0.72605721  0.91973375  0.38488391     0.02700
H3930       H  0.73631888  0.95332093  0.38473124     0.06200
H3931       H  0.69556583  0.85390433  0.33623940     0.05100
H3932       H  0.71474001  0.86797906  0.30393613    -0.00600
H3933       H  0.70197383  0.88847981  0.33652066     0.00800
H3934       H  0.81946362  0.85059713  0.38986654     0.04500
H3935       H  0.80298516  0.83584747  0.42377979     0.06400
H3936       H  0.80681320  0.87076518  0.42271740     0.07300
C3937       C  0.77687086  0.61748779  0.37268994    -0.22300
C3938       C  0.75832249  0.61593342  0.34789107     0.09700
C3939       C  0.74196144  0.63760248  0.34267753     0.10100
C3940       C  0.74352054  0.65962480  0.36359277    -0.17200
C3941       C  0.76109285  0.66055311  0.38967300    -0.27600
C3942       C  0.77861112  0.63952675  0.39346746     0.18400
C3943       C  0.75534482  0.59092008  0.32904439     0.12400
C3944       C  0.72285311  0.63747681  0.31499950    -0.12000
H3945       H  0.73031292  0.67575813  0.36032268     0.12700
C3946       C  0.79951971  0.64035830  0.41900375    -0.22800
H3947       H  0.78966947  0.60105618  0.37631858     0.08300
C3948       C  0.77269048  0.58315724  0.30401400     0.04600
C3949       C  0.76818400  0.55985644  0.28619475    -0.20100
C3950       C  0.74683329  0.54401183  0.29299549    -0.12300
C3951       C  0.73040901  0.55101913  0.31944218     0.13300
C3952       C  0.73470268  0.57445521  0.33679020    -0.22800
C3953       C  0.79549767  0.59984084  0.29548537    -0.05800
H3954       H  0.78083523  0.55449284  0.26603873     0.14900
C3955       C  0.70843735  0.53399274  0.33040753    -0.16000
H3956       H  0.72179289  0.57995309  0.35662485     0.09200
H3957       H  0.81107757  0.65842397  0.41587264     0.07000
H3958       H  0.81263945  0.62333439  0.41673071     0.08200
H3959       H  0.79121470  0.63990895  0.44416825     0.07300
H3960       H  0.70900884  0.62124127  0.31838277     0.02200
H3961       H  0.73302552  0.63488047  0.29113124     0.02700
H3962       H  0.71189247  0.65608505  0.31393624     0.06200
H3963       H  0.80673483  0.59137287  0.27475389     0.05100
H3964       H  0.80831646  0.60145482  0.31713611    -0.00600
H3965       H  0.78902872  0.61969258  0.28819729     0.00800
H3966       H  0.71059095  0.52933561  0.35697561     0.04500
H3967       H  0.70756369  0.51512524  0.31695558     0.06400
H3968       H  0.69010577  0.54457270  0.32679526     0.07300
loop_ 
_geom_bond_atom_site_label_1 
_geom_bond_atom_site_label_2 
_geom_bond_distance 
_geom_bond_site_symmetry_2 
_ccdc_geom_bond_type 
O1           C12   1.298       .  A
O1          Eu37   2.499       .  S
O2           C13   1.297       .  A
O2          Eu36   2.499       .  S
O3           C14   1.288       .  A
O3           Eu9   2.453       .  S
O4           C15   1.290       .  A
O4           Eu9   2.451       .  S
O5           C15   1.286       .  A
O5          Eu39   2.438       .  S
O6           C14   1.291       .  A
O6          Eu38   2.454       .  S
O7           C13   1.288       .  A
O7           Eu9   2.432       .  S
O8           C12   1.289       .  A
O8           Eu9   2.448       .  S
Eu9          O19   2.345       .  S
Eu9          O11   2.343       .  S
Eu9          O10   2.357       .  S
Eu9          O17   2.349       .  S
O10         Eu39   2.345       .  S
O10         Eu36   2.360       .  S
O11         Eu37   2.363       .  S
O11         Eu38   2.350       .  S
C12         C965   1.492       .  S
C13         C686   1.505       .  S
C14         C741   1.492       .  S
C15         C782   1.474       .  S
H16          O17   0.965       .  S
O17         Eu38   2.347       .  S
O17         Eu36   2.361       .  S
H18          O19   0.965       .  S
O19         Eu37   2.352       .  S
O19         Eu39   2.357       .  S
O20          C43   1.295       .  A
O20         Eu36   2.484       .  S
O21          C44   1.295       .  A
O21         Eu37   2.480       .  S
O22          C45   1.290       .  A
O22         Eu38   2.442       .  S
O23          C46   1.291       .  A
O23         Eu39   2.457       .  S
O24          C47   1.289       .  A
O24         Eu39   2.436       .  S
O25          C48   1.285       .  A
O25         Eu38   2.429       .  S
O26          C49   1.289       .  A
O26         Eu40   2.448       .  S
O27          C50   1.288       .  A
O27         Eu40   2.435       .  S
O28          C49   1.289       .  A
O28         Eu38   2.455       .  S
O29          C50   1.288       .  A
O29         Eu39   2.447       .  S
O30          C45   1.294       .  A
O30         Eu36   2.475       .  S
O31          C48   1.299       .  A
O31         Eu37   2.504       .  S
O32          C47   1.299       .  A
O32         Eu37   2.508       .  S
O33          C46   1.297       .  A
O33         Eu36   2.495       .  S
O34          C43   1.293       .  A
O34         Eu40   2.460       .  S
O35          C44   1.292       .  A
O35         Eu40   2.464       .  S
Eu36         O54   2.366       .  S
Eu36         O42   2.368       .  S
Eu37         O41   2.366       .  S
Eu37         O52   2.364       .  S
Eu38         O52   2.348       .  S
Eu38         O42   2.340       .  S
Eu39         O41   2.348       .  S
Eu39         O54   2.350       .  S
Eu40         O41   2.351       .  S
Eu40         O52   2.346       .  S
Eu40         O54   2.363       .  S
Eu40         O42   2.346       .  S
C43         C709   1.505       .  S
C44         C942   1.481       .  S
C45         C613   1.486       .  S
C46         C654   1.491       .  S
C47         C878   1.507       .  S
C48         C901   1.493       .  S
C49         C837   1.478       .  S
C50         C814   1.481       .  S
H51          O52   0.967       .  S
H53          O54   0.965       .  S
N55          C60   1.352   1_565  A
N55        C1051   1.352       .  A
N55          H87   1.039       .  S
N56          C64   1.349       .  A
N56        C2047   1.351   1_455  A
N57          C62   1.351       .  A
N57        C1053   1.350   1_545  A
N57          H88   1.039       .  S
N58          C66   1.349       .  A
N58        C2049   1.348   1_455  A
C59        N1047   1.352       .  A
C59          C67   1.386       .  A
C59          C75   1.413       .  A
C60          C76   1.412       .  A
C60          C68   1.387       .  A
C61        N1049   1.350       .  A
C61          C69   1.388       .  A
C61          C78   1.411       .  A
C62          C77   1.410       .  A
C62          C70   1.386       .  A
C63        N2040   1.351       .  A
C63          C75   1.412       .  A
C63          C71   1.386       .  A
C64          C78   1.411       .  A
C64          C72   1.387       .  A
C65        N2042   1.348       .  A
C65          C73   1.387       .  A
C65          C76   1.408       .  A
C66          C74   1.385       .  A
C66          C77   1.407       .  A
C67        C1060   1.376       .  A
C67          H79   1.082       .  S
C68        C1059   1.376   1_545  A
C68          H80   1.082       .  S
C69        C1062   1.373       .  A
C69          H81   1.082       .  S
C70        C1061   1.373   1_545  A
C70          H82   1.083       .  S
C71        C2056   1.375       .  A
C71          H83   1.082       .  S
C72        C2055   1.375   1_455  A
C72          H84   1.082       .  S
C73        C2058   1.372       .  A
C73          H85   1.082       .  S
C74        C2057   1.372   1_455  A
C74          H86   1.082       .  S
C75         C846   1.487       .  S
C76         C750   1.479       .  S
C77         C773   1.481       .  S
C78         C805   1.478       .  S
O89         C100   1.296       .  A
O89        Eu125   2.494       .  S
O90         C101   1.296       .  A
O90        Eu124   2.487       .  S
O91         C102   1.288       .  A
O91       Eu2081   2.446   1_455  S
O92         C103   1.287       .  A
O92         Eu97   2.443       .  S
O93         C103   1.288   1_554  A
O93        Eu127   2.439       .  S
O94         C102   1.289       .  A
O94        Eu126   2.439       .  S
O95         C101   1.290       .  A
O95         Eu97   2.454   1_554  S
O96         C100   1.290       .  A
O96         Eu97   2.455       .  S
Eu97       O2075   2.446       .  S
Eu97        O107   2.351       .  S
Eu97         O98   2.345   1_556  S
Eu97       O2083   2.345       .  S
Eu97       O2089   2.356   1_556  S
O98        Eu127   2.344       .  S
O98        Eu124   2.360       .  S
O99        Eu126   2.346       .  S
O99       Eu2081   2.345   1_455  S
O99       Eu2109   2.357   1_455  S
C100        C581   1.483       .  S
C101        C293   1.487       .  S
C102        C366   1.485       .  S
C103        C389   1.477       .  S
H104        O105   0.965       .  S
O105       Eu126   2.359   1_554  S
O105      Eu2081   2.356   1_454  S
O105      Eu2108   2.366   1_455  S
H106        O107   0.965       .  S
O107       Eu125   2.363       .  S
O107       Eu127   2.347   1_556  S
O108        C131   1.294       .  A
O108      Eu1116   2.481   1_545  S
O109        C132   1.297       .  A
O109      Eu1117   2.494   1_545  S
O110        C133   1.290       .  A
O110       Eu126   2.453   1_554  S
O111        C134   1.293       .  A
O111       Eu127   2.464       .  S
O112       C1127   1.290       .  A
O112       Eu127   2.456   1_556  S
O113       C1128   1.291       .  A
O113       Eu126   2.456       .  S
O114        C137   1.287       .  A
O114      Eu2112   2.441   1_455  S
O115        C138   1.290       .  A
O115       Eu128   2.451       .  S
O116        C137   1.291   1_556  A
O116      Eu1118   2.453   1_545  S
O117        C138   1.286       .  A
O117      Eu1119   2.434   1_545  S
O118        C133   1.296       .  A
O118      Eu2108   2.489   1_455  S
O119        C136   1.295       .  A
O119      Eu3101   2.484   1_455  S
O120        C135   1.295       .  A
O120      Eu1117   2.478       .  S
O121        C134   1.294       .  A
O121       Eu124   2.479       .  S
O122        C131   1.290       .  A
O122       Eu128   2.456       .  S
O123        C132   1.289       .  A
O123       Eu128   2.447   1_556  S
Eu124      O1100   2.481       .  S
Eu124      O2102   2.489       .  S
Eu124      O2089   2.366       .  S
Eu124      O1134   2.366       .  S
Eu124      O3106   2.358       .  S
Eu125      O1101   2.494       .  S
Eu125      O3095   2.484       .  S
Eu125      O1112   2.478       .  S
Eu125      O2083   2.357       .  S
Eu125      O1121   2.363       .  S
Eu125      O3116   2.365       .  S
Eu126      O1108   2.453       .  S
Eu126      O1132   2.352       .  S
Eu126      O1122   2.347   1_556  S
Eu127      O1109   2.434       .  S
Eu127      O1121   2.347   1_554  S
Eu127      O1134   2.353       .  S
Eu128      O2098   2.441       .  S
Eu128       O129   2.347   1_554  S
Eu128       O142   2.349       .  S
Eu128      O2124   2.361   1_554  S
Eu128      O2114   2.348       .  S
O129      Eu1117   2.363   1_545  S
O129      Eu1119   2.347   1_546  S
O130      Eu3100   2.358   1_445  S
O130      Eu1118   2.347   1_544  S
O130      Eu2112   2.348   1_455  S
C131        C325   1.480       .  S
C132        C549   1.487       .  S
C133        C229   1.482       .  S
C134        C261   1.491       .  S
C135       O1104   1.290       .  A
C135        C485   1.495   1_565  S
C136       O1105   1.291       .  A
C136        C517   1.483       .  S
C137        C453   1.477       .  S
C138        C421   1.479       .  S
H139        O140   0.966       .  S
O140      Eu3101   2.365   1_445  S
O140      Eu1118   2.352   1_545  S
O140      Eu2112   2.361   1_456  S
H141        O142   0.965       .  S
O142      Eu1116   2.367   1_545  S
O142      Eu1119   2.353   1_545  S
N143        C148   1.350       .  A
N143        C147   1.349       .  A
N143        H175   1.038   1_556  S
N144        C151   1.349   1_556  A
N144        C152   1.349   1_556  A
N145        C150   1.352       .  A
N145        C149   1.352       .  A
N145        H176   1.038   1_556  S
N146        C153   1.349   1_556  A
N146        C154   1.349   1_556  A
C147        C155   1.388       .  A
C147        C163   1.409       .  A
C148        C164   1.408       .  A
C148        C156   1.387       .  A
C149        C157   1.387       .  A
C149        C166   1.413   1_556  A
C150        C165   1.414       .  A
C150        C158   1.387       .  A
C151        C163   1.409   1_554  A
C151        C159   1.386       .  A
C152        C166   1.410       .  A
C152        C160   1.387       .  A
C153        C161   1.386       .  A
C153        C164   1.409   1_554  A
C154        C162   1.386       .  A
C154        C165   1.409   1_554  A
C155        C156   1.374       .  A
C155        H167   1.083       .  S
C156        H168   1.082       .  S
C157        C158   1.375       .  A
C157        H169   1.082       .  S
C158        H170   1.082       .  S
C159        C160   1.373       .  A
C159        H171   1.082       .  S
C160        H172   1.082       .  S
C161        C162   1.372       .  A
C161        H173   1.082       .  S
C162        H174   1.082       .  S
C163        C430   1.476       .  S
C164        C398   1.478       .  S
C165        C357   1.482       .  S
C166        C462   1.483       .  S
C177        C178   1.534       .  S
C177        C181   1.546       .  S
C177       C2167   1.539       .  S
C177        C869   1.548       .  S
C178        H185   1.087       .  S
C178       C2163   1.366       .  D
C179        C180   1.547       .  S
C179       C2162   1.366       .  D
C179        C334   1.495       .  S
C180        C184   1.542       .  S
C180        C182   1.540       .  S
C180        H186   1.106       .  S
C181        H187   1.080       .  S
C181       C2166   1.366       .  D
C182       C2165   1.366       .  D
C182        C302   1.486       .  S
C183       C2161   1.539       .  S
C183        H188   1.086       .  S
C183        C184   1.367       .  D
C184        C910   1.492       .  S
C189        C190   1.539       .  S
C189        C195   1.545       .  S
C189       C1185   1.536       .  S
C189        C238   1.547       .  S
C190        H197   1.086       .  S
C190        C191   1.367       .  D
C191        C192   1.548       .  S
C191        C933   1.487       .  S
C192        C196   1.543       .  S
C192       C1186   1.544       .  S
C192        H198   1.111       .  S
C193       C1181   1.536   1_545  S
C193        H199   1.086       .  S
C193        C194   1.366       .  D
C194       C1184   1.544   1_545  S
C194        C974   1.494       .  S
C195        H200   1.083       .  S
C195        C196   1.366       .  D
C196        C270   1.495       .  S
C201        C202   1.534       .  S
C201        C205   1.549       .  S
C201       C2191   1.540       .  S
C201        C645   1.552       .  S
C202        H209   1.086       .  S
C202       C2187   1.366       .  D
C203        C204   1.546       .  S
C203       C2186   1.366       .  D
C203        C590   1.495       .  S
C204        C208   1.545       .  S
C204        C206   1.548       .  S
C204        H210   1.111       .  S
C205        H211   1.082       .  S
C205       C2190   1.368       .  D
C206       C2189   1.368       .  D
C206        C558   1.499       .  S
C207       C2185   1.540       .  S
C207        H212   1.086       .  S
C207        C208   1.367       .  D
C208        C622   1.490       .  S
C213        C219   1.546       .  S
C213        C217   1.541       .  S
C213       C1206   1.534       .  S
C213        C526   1.553       .  S
C214       C1205   1.534   1_545  S
C214        H221   1.086       .  S
C214        C215   1.369       .  D
C215       C1208   1.550   1_545  S
C215        C677   1.507       .  S
C216        C220   1.549       .  S
C216        C218   1.548       .  S
C216       C1207   1.550       .  S
C216        H222   1.109       .  S
C217        H223   1.086       .  S
C217        C218   1.368       .  D
C218        C718   1.498       .  S
C219        H224   1.083       .  S
C219        C220   1.366       .  D
C220        C494   1.492       .  S
C225        C230   1.407       .  A
C225       C1218   1.402       .  A
C225        H235   1.084       .  S
C226        C231   1.488       .  S
C226        C227   1.412       .  A
C226       C1217   1.402       .  A
C227        C228   1.406       .  A
C227        C232   1.506       .  S
C228        C229   1.405       .  A
C228        H233   1.084       .  S
C229       C1222   1.417       .  A
C230       C1221   1.417   1_545  A
C230        C234   1.504       .  S
C231        C236   1.407       .  A
C231       C1232   1.399       .  A
C232        H248   1.110       .  S
C232        H249   1.110       .  S
C232        H250   1.111       .  S
C234        H245   1.109       .  S
C234        H246   1.110       .  S
C234        H247   1.107       .  S
C236        C237   1.405       .  A
C236        C241   1.508       .  S
C237        C238   1.416       .  A
C237        H242   1.079       .  S
C238       C1231   1.428       .  A
C239        C240   1.408       .  A
C239       C1230   1.428   1_565  A
C239        C243   1.509       .  S
C240       C1223   1.399   1_565  A
C240        H244   1.085       .  S
C241        H251   1.111       .  S
C241        H252   1.110       .  S
C241        H253   1.109       .  S
C243        H254   1.111   1_565  S
C243        H255   1.104       .  S
C243        H256   1.110       .  S
C257        C262   1.410       .  A
C257       C1250   1.403   1_545  A
C257        H267   1.084       .  S
C258        C263   1.488       .  S
C258        C259   1.410       .  A
C258       C1249   1.403       .  A
C259        C260   1.404       .  A
C259        C264   1.506       .  S
C260        C261   1.406       .  A
C260        H265   1.084       .  S
C261       C1254   1.419       .  A
C262       C1253   1.419   1_545  A
C262        C266   1.506       .  S
C263        C268   1.412       .  A
C263       C1264   1.399       .  A
C264        H280   1.110       .  S
C264        H281   1.110       .  S
C264        H282   1.110       .  S
C266        H277   1.109       .  S
C266        H278   1.111       .  S
C266        H279   1.109       .  S
C268        C269   1.410       .  A
C268        C273   1.505       .  S
C269        C270   1.407       .  A
C269        H274   1.084       .  S
C270       C1263   1.422       .  A
C271        C272   1.402       .  A
C271       C1262   1.422       .  A
C271        C275   1.509       .  S
C272       C1255   1.399   1_545  A
C272        H276   1.085       .  S
C273        H283   1.111       .  S
C273        H284   1.110       .  S
C273        H285   1.110       .  S
C275        H286   1.110       .  S
C275        H287   1.107       .  S
C275        H288   1.111       .  S
C289        C294   1.407       .  A
C289       C2274   1.401       .  A
C289        H299   1.084       .  S
C290        C295   1.489       .  S
C290        C291   1.415       .  A
C290       C2273   1.401       .  A
C291        C292   1.408       .  A
C291        C296   1.507       .  S
C292        C293   1.404       .  A
C292        H297   1.084       .  S
C293       C2278   1.419       .  A
C294       C2277   1.419       .  A
C294        C298   1.509       .  S
C295        C300   1.414       .  A
C295       C2288   1.400       .  A
C296        H313   1.111       .  S
C296        H314   1.111       .  S
C296       H2296   1.109       .  S
C298        H310   1.111       .  S
C298        H311   1.109       .  S
C298       H2293   1.111       .  S
C300        C301   1.410       .  A
C300        C305   1.505       .  S
C301        C302   1.405       .  A
C301        H306   1.084       .  S
C302       C2287   1.417       .  A
C303        C304   1.401       .  A
C303       C2286   1.417   1_455  A
C303        C307   1.508       .  S
C304       C2279   1.400   1_455  A
C304        H308   1.085       .  S
C305        H315   1.111       .  S
C305        H316   1.110       .  S
C305        H317   1.110       .  S
C307        H318   1.111       .  S
C307        H319   1.107       .  S
C307        H320   1.110       .  S
H309       C2282   1.111       .  S
H312       C2280   1.109       .  S
C321        C326   1.402       .  A
C321       C2306   1.400   1_455  A
C321        H331   1.085       .  S
C322        C327   1.485       .  S
C322        C323   1.412       .  A
C322       C2305   1.400       .  A
C323        C324   1.409       .  A
C323        C328   1.507       .  S
C324        C325   1.405       .  A
C324        H329   1.082       .  S
C325       C2310   1.417       .  A
C326       C2309   1.417   1_455  A
C326        C330   1.508       .  S
C327        C336   1.402       .  A
C327       C2316   1.409       .  A
C328        H344   1.111       .  S
C328        H345   1.109       .  S
C328        H346   1.111       .  S
C330        H341   1.109       .  S
C330        H342   1.110       .  S
C330        H343   1.108       .  S
C332        C333   1.403       .  A
C332       C2311   1.409   1_455  A
C332        C337   1.507       .  S
C333       C2318   1.409   1_455  A
C333        H338   1.084       .  S
C334        C335   1.417       .  A
C334       C2317   1.409       .  A
C335        C336   1.408       .  A
C335        C339   1.505       .  S
C336        H340   1.084       .  S
C337        H347   1.111       .  S
C337        H348   1.110       .  S
C337        H349   1.108   1_455  S
C339        H350   1.111       .  S
C339        H351   1.106       .  S
C339        H352   1.106       .  S
C353        C354   1.400       .  A
C353        C358   1.401       .  A
C353        H363   1.085       .  S
C354        C359   1.472       .  S
C354        C355   1.409   1_556  A
C355        C356   1.399       .  A
C355        C360   1.507       .  S
C356        C357   1.402   1_554  A
C356        H361   1.084       .  S
C357        C358   1.415       .  A
C358        C362   1.507       .  S
C359        C364   1.406   1_556  A
C359        C368   1.397       .  A
C360        H376   1.110       .  S
C360        H377   1.110       .  S
C360        H378   1.111       .  S
C362        H373   1.110       .  S
C362        H374   1.111       .  S
C362        H375   1.108       .  S
C364        C365   1.400       .  A
C364        C369   1.506       .  S
C365        C366   1.409   1_554  A
C365        H370   1.084       .  S
C366        C367   1.422       .  A
C367        C368   1.400       .  A
C367        C371   1.508       .  S
C368        H372   1.084       .  S
C369        H379   1.111       .  S
C369        H380   1.110   1_554  S
C369        H381   1.110       .  S
C371        H382   1.111       .  S
C371        H383   1.107       .  S
C371        H384   1.110       .  S
C385        C386   1.397       .  A
C385        C390   1.400       .  A
C385        H395   1.084       .  S
C386        C391   1.468       .  S
C386        C387   1.407   1_556  A
C387        C388   1.397       .  A
C387        C392   1.507       .  S
C388        C389   1.406   1_554  A
C388        H393   1.084       .  S
C389        C390   1.420       .  A
C390        C394   1.509       .  S
C391        C396   1.408       .  A
C391        C400   1.399   1_556  A
C392        H408   1.110       .  S
C392        H409   1.110       .  S
C392        H410   1.110       .  S
C394        H405   1.108       .  S
C394        H406   1.111       .  S
C394        H407   1.109       .  S
C396        C397   1.398       .  A
C396        C401   1.506       .  S
C397        C398   1.402       .  A
C397        H402   1.084       .  S
C398        C399   1.415   1_556  A
C399        C400   1.398       .  A
C399        C403   1.508       .  S
C400        H404   1.085       .  S
C401        H411   1.111       .  S
C401        H412   1.110       .  S
C401        H413   1.110       .  S
C403        H414   1.111       .  S
C403        H415   1.107       .  S
C403        H416   1.110       .  S
C417        C418   1.397       .  A
C417        C422   1.400       .  A
C417        H427   1.084       .  S
C418        C423   1.469   1_554  S
C418        C419   1.407   1_554  A
C419        C420   1.399       .  A
C419        C424   1.507       .  S
C420        C421   1.407   1_556  A
C420        H425   1.084       .  S
C421        C422   1.420       .  A
C422        C426   1.510       .  S
C423        C428   1.410       .  A
C423        C432   1.399   1_556  A
C424        H440   1.110       .  S
C424        H441   1.109       .  S
C424        H442   1.111       .  S
C426        H437   1.109       .  S
C426        H438   1.111       .  S
C426        H439   1.111       .  S
C428        C429   1.400       .  A
C428        C433   1.507       .  S
C429        C430   1.401       .  A
C429        H434   1.084       .  S
C430        C431   1.414   1_556  A
C431        C432   1.397       .  A
C431        C435   1.508       .  S
C432        H436   1.085       .  S
C433        H443   1.111       .  S
C433        H444   1.110       .  S
C433        H445   1.110       .  S
C435        H446   1.110       .  S
C435        H447   1.108       .  S
C435        H448   1.110       .  S
C449        C450   1.400   1_556  A
C449        C454   1.403       .  A
C449        H459   1.084       .  S
C450        C455   1.474       .  S
C450        C451   1.408       .  A
C451        C452   1.399       .  A
C451        C456   1.507       .  S
C452        C453   1.405       .  A
C452        H457   1.084       .  S
C453        C454   1.419   1_554  A
C454        C458   1.509       .  S
C455        C460   1.410   1_554  A
C455        C464   1.400       .  A
C456        H472   1.110       .  S
C456        H473   1.110       .  S
C456        H474   1.111       .  S
C458        H469   1.111       .  S
C458        H470   1.109       .  S
C458        H471   1.111       .  S
C460        C461   1.401       .  A
C460        C465   1.506       .  S
C461        C462   1.403   1_556  A
C461        H466   1.084       .  S
C462        C463   1.415       .  A
C463        C464   1.400       .  A
C463        C467   1.507       .  S
C464        H468   1.085       .  S
C465        H475   1.111       .  S
C465        H476   1.110       .  S
C465        H477   1.110       .  S
C467        H478   1.110       .  S
C467        H479   1.108       .  S
C467        H480   1.110       .  S
C481        C486   1.402       .  A
C481       C1474   1.397   1_545  A
C481        H491   1.084       .  S
C482        C487   1.485       .  S
C482        C483   1.410       .  A
C482       C1473   1.398       .  A
C483        C484   1.410       .  A
C483        C488   1.505       .  S
C484       C1477   1.410       .  A
C484        H489   1.083       .  S
C485        C486   1.423       .  A
C485       C1476   1.411   1_545  A
C486        C490   1.511       .  S
C487        C492   1.411       .  A
C487       C1488   1.401       .  A
C488        H504   1.111       .  S
C488        H505   1.110       .  S
C488        H506   1.111       .  S
C490        H501   1.109       .  S
C490        H502   1.111       .  S
C490        H503   1.111       .  S
C492        C493   1.405       .  A
C492        C497   1.507       .  S
C493        C494   1.405       .  A
C493        H498   1.083       .  S
C494       C1487   1.416       .  A
C495        C496   1.406       .  A
C495       C1486   1.416       .  A
C495        C499   1.502       .  S
C496       C1479   1.401   1_545  A
C496        H500   1.085       .  S
C497        H507   1.111       .  S
C497        H508   1.110       .  S
C497        H509   1.110       .  S
C499        H510   1.110       .  S
C499        H511   1.106       .  S
C499        H512   1.110       .  S
C513        C518   1.406       .  A
C513       C1506   1.403       .  A
C513        H523   1.084       .  S
C514        C519   1.493       .  S
C514        C515   1.413   1_565  A
C514       C1505   1.403       .  A
C515        C516   1.408       .  A
C515        C520   1.505       .  S
C516        C517   1.403   1_545  A
C516        H521   1.082       .  S
C517       C1510   1.418       .  A
C518       C1509   1.418       .  A
C518        C522   1.509       .  S
C519        C524   1.408   1_565  A
C519       C1520   1.397       .  A
C520        H536   1.110       .  S
C520        H537   1.110       .  S
C520        H538   1.111       .  S
C522        H533   1.110       .  S
C522        H534   1.111       .  S
C522        H535   1.108       .  S
C524        C525   1.408       .  A
C524        C529   1.507       .  S
C525       C1518   1.416   1_545  A
C525        H530   1.077       .  S
C526        C527   1.433       .  A
C526       C1517   1.416       .  A
C527        C528   1.409       .  A
C527        C531   1.510       .  S
C528       C1511   1.397       .  A
C528        H532   1.085       .  S
C529        H539   1.111       .  S
C529        H540   1.110       .  S
C529        H541   1.111       .  S
C531        H542   1.110       .  S
C531        H543   1.099       .  S
C531        H544   1.111       .  S
C545        C550   1.409       .  A
C545       C2530   1.405   1_455  A
C545        H555   1.084       .  S
C546        C551   1.492       .  S
C546        C547   1.412       .  A
C546       C2529   1.405       .  A
C547        C548   1.407       .  A
C547        C552   1.506       .  S
C548        C549   1.406       .  A
C548        H553   1.084       .  S
C549       C2534   1.415       .  A
C550       C2533   1.415   1_455  A
C550        C554   1.506       .  S
C551        C560   1.401       .  A
C551       C2540   1.412       .  A
C552        H568   1.109       .  S
C552        H569   1.110       .  S
C552        H570   1.111       .  S
C554        H565   1.111       .  S
C554        H566   1.109       .  S
C554        H567   1.111       .  S
C556        C557   1.407       .  A
C556       C2535   1.412   1_455  A
C556        C561   1.507       .  S
C557       C2542   1.407   1_455  A
C557        H562   1.084       .  S
C558        C559   1.421       .  A
C558       C2541   1.407       .  A
C559        C560   1.407       .  A
C559        C563   1.503       .  S
C560        H564   1.085       .  S
C561        H571   1.111       .  S
C561        H572   1.110       .  S
C561        H573   1.110       .  S
C563        H574   1.111       .  S
C563        H575   1.096       .  S
C563        H576   1.110       .  S
C577        C582   1.412       .  A
C577       C2562   1.406       .  A
C577        H587   1.084       .  S
C578        C583   1.493       .  S
C578        C579   1.414       .  A
C578       C2561   1.406       .  A
C579        C580   1.405       .  A
C579        C584   1.508       .  S
C580        C581   1.402       .  A
C580        H585   1.082       .  S
C581       C2566   1.414       .  A
C582       C2565   1.414       .  A
C582        C586   1.506       .  S
C583        C592   1.400       .  A
C583       C2572   1.415       .  A
C584        H600   1.110       .  S
C584        H601   1.108       .  S
C584        H602   1.111       .  S
C586        H597   1.109       .  S
C586        H598   1.111       .  S
C586        H599   1.110       .  S
C588        C589   1.412       .  A
C588       C2567   1.415       .  A
C588        C593   1.507       .  S
C589       C2574   1.405       .  A
C589        H594   1.084       .  S
C590        C591   1.418       .  A
C590       C2573   1.405       .  A
C591        C592   1.405       .  A
C591        C595   1.506       .  S
C592        H596   1.084       .  S
C593        H603   1.111       .  S
C593        H604   1.110       .  S
C593        H605   1.108       .  S
C595        H606   1.111       .  S
C595        H607   1.110       .  S
C595        H608   1.106       .  S
C609        C610   1.403       .  A
C609        C614   1.409       .  A
C609        H619   1.084       .  S
C610        C615   1.483       .  S
C610        C611   1.409       .  A
C611        C612   1.400       .  A
C611        C616   1.508       .  S
C612        C613   1.407       .  A
C612        H617   1.084       .  S
C613        C614   1.417       .  A
C614        C618   1.507       .  S
C615        C620   1.411       .  A
C615        C624   1.400       .  A
C616        H632   1.110       .  S
C616        H633   1.109       .  S
C616        H634   1.111       .  S
C618        H629   1.110       .  S
C618        H630   1.111       .  S
C618        H631   1.111       .  S
C620        C621   1.407       .  A
C620        C625   1.506       .  S
C621        C622   1.405       .  A
C621        H626   1.084       .  S
C622        C623   1.420       .  A
C623        C624   1.403       .  A
C623        C627   1.509       .  S
C624        H628   1.085       .  S
C625        H635   1.110       .  S
C625        H636   1.110       .  S
C625        H637   1.109       .  S
C627        H638   1.111       .  S
C627        H639   1.107       .  S
C627        H640   1.110       .  S
C641        C642   1.398       .  A
C641        C646   1.408       .  A
C641        H651   1.085       .  S
C642        C647   1.492       .  S
C642        C643   1.407       .  A
C643        C644   1.408       .  A
C643        C648   1.508       .  S
C644        C645   1.417       .  A
C644        H649   1.076       .  S
C645        C646   1.432       .  A
C646        C650   1.511       .  S
C647        C652   1.412       .  A
C647        C656   1.403       .  A
C648        H664   1.110       .  S
C648        H665   1.108       .  S
C648        H666   1.111       .  S
C650        H661   1.110       .  S
C650        H662   1.111       .  S
C650        H663   1.100       .  S
C652        C653   1.408       .  A
C652        C657   1.507       .  S
C653        C654   1.407       .  A
C653        H658   1.084       .  S
C654        C655   1.419       .  A
C655        C656   1.409       .  A
C655        C659   1.504       .  S
C656        H660   1.084       .  S
C657        H667   1.111       .  S
C657        H668   1.110       .  S
C657        H669   1.109       .  S
C659        H670   1.110       .  S
C659        H671   1.106       .  S
C659        H672   1.110       .  S
C673        C674   1.398       .  A
C673        C678   1.403       .  A
C673        H683   1.085       .  S
C674        C679   1.487       .  S
C674        C675   1.410       .  A
C675        C676   1.410       .  A
C675        C680   1.506       .  S
C676        C677   1.408       .  A
C676        H681   1.078       .  S
C677        C678   1.422       .  A
C678        C682   1.506       .  S
C679        C684   1.406       .  A
C679        C688   1.403       .  A
C680        H696   1.110       .  S
C680        H697   1.110       .  S
C680        H698   1.111       .  S
C682        H693   1.111       .  S
C682        H694   1.110       .  S
C682        H695   1.105       .  S
C684        C685   1.401       .  A
C684        C689   1.508       .  S
C685        C686   1.415       .  A
C685        H690   1.083       .  S
C686        C687   1.423       .  A
C687        C688   1.412       .  A
C687        C691   1.507       .  S
C688        H692   1.084       .  S
C689        H699   1.111       .  S
C689        H700   1.110       .  S
C689        H701   1.110       .  S
C691        H702   1.111       .  S
C691        H703   1.110       .  S
C691        H704   1.109       .  S
C705        C706   1.403       .  A
C705        C710   1.412       .  A
C705        H715   1.084       .  S
C706        C711   1.490       .  S
C706        C707   1.407       .  A
C707        C708   1.404       .  A
C707        C712   1.507       .  S
C708        C709   1.412       .  A
C708        H713   1.083       .  S
C709        C710   1.424       .  A
C710        C714   1.506       .  S
C711        C716   1.412       .  A
C711        C720   1.402       .  A
C712        H728   1.110       .  S
C712        H729   1.109       .  S
C712        H730   1.111       .  S
C714        H725   1.104       .  S
C714        H726   1.111       .  S
C714        H727   1.110       .  S
C716        C717   1.406       .  A
C716        C721   1.507       .  S
C717        C718   1.406       .  A
C717        H722   1.084       .  S
C718        C719   1.418       .  A
C719        C720   1.410       .  A
C719        C723   1.502       .  S
C720        H724   1.084       .  S
C721        H731   1.111       .  S
C721        H732   1.110       .  S
C721        H733   1.110       .  S
C723        H734   1.111       .  S
C723        H735   1.105       .  S
C723        H736   1.107       .  S
C737        C738   1.398       .  A
C737        C742   1.404       .  A
C737        H747   1.084       .  S
C738        C743   1.476       .  S
C738        C739   1.406       .  A
C739        C740   1.400       .  A
C739        C744   1.507       .  S
C740        C741   1.409       .  A
C740        H745   1.080       .  S
C741        C742   1.424       .  A
C742        C746   1.508       .  S
C743        C748   1.410       .  A
C743        C752   1.401       .  A
C744        H760   1.110       .  S
C744        H761   1.110       .  S
C744        H762   1.111       .  S
C746        H757   1.110       .  S
C746        H758   1.111       .  S
C746        H759   1.109       .  S
C748        C749   1.402       .  A
C748        C753   1.506       .  S
C749        C750   1.402       .  A
C749        H754   1.084       .  S
C750        C751   1.413       .  A
C751        C752   1.400       .  A
C751        C755   1.508       .  S
C752        H756   1.085       .  S
C753        H763   1.111       .  S
C753        H764   1.110       .  S
C753        H765   1.110       .  S
C755        H766   1.110       .  S
C755        H767   1.108       .  S
C755        H768   1.111       .  S
C769        C770   1.399       .  A
C769        C774   1.399       .  A
C769        H779   1.085       .  S
C770        C775   1.469       .  S
C770        C771   1.410       .  A
C771        C772   1.399       .  A
C771        C776   1.507       .  S
C772        C773   1.403       .  A
C772        H777   1.084       .  S
C773        C774   1.415       .  A
C774        C778   1.507       .  S
C775        C780   1.408       .  A
C775        C784   1.397       .  A
C776        H792   1.110       .  S
C776        H793   1.110       .  S
C776        H794   1.111       .  S
C778        H789   1.110       .  S
C778        H790   1.110       .  S
C778        H791   1.108       .  S
C780        C781   1.400       .  A
C780        C785   1.507       .  S
C781        C782   1.404       .  A
C781        H786   1.084       .  S
C782        C783   1.420       .  A
C783        C784   1.400       .  A
C783        C787   1.510       .  S
C784        H788   1.084       .  S
C785        H795   1.111       .  S
C785        H796   1.110       .  S
C785        H797   1.109       .  S
C787        H798   1.111       .  S
C787        H799   1.111       .  S
C787        H800   1.109       .  S
C801        C802   1.399       .  A
C801        C806   1.397       .  A
C801        H811   1.085       .  S
C802        C807   1.467       .  S
C802        C803   1.408       .  A
C803        C804   1.399       .  A
C803        C808   1.507       .  S
C804        C805   1.403       .  A
C804        H809   1.084       .  S
C805        C806   1.414       .  A
C806        C810   1.507       .  S
C807        C812   1.406       .  A
C807        C816   1.396       .  A
C808        H824   1.110       .  S
C808        H825   1.110       .  S
C808        H826   1.111       .  S
C810        H821   1.110       .  S
C810        H822   1.110       .  S
C810        H823   1.108       .  S
C812        C813   1.400       .  A
C812        C817   1.507       .  S
C813        C814   1.409       .  A
C813        H818   1.084       .  S
C814        C815   1.420       .  A
C815        C816   1.398       .  A
C815        C819   1.508       .  S
C816        H820   1.085       .  S
C817        H827   1.111       .  S
C817        H828   1.110       .  S
C817        H829   1.110       .  S
C819        H830   1.111       .  S
C819        H831   1.110       .  S
C819        H832   1.110       .  S
C833        C834   1.400       .  A
C833        C838   1.403       .  A
C833        H843   1.084       .  S
C834        C839   1.478       .  S
C834        C835   1.411       .  A
C835        C836   1.403       .  A
C835        C840   1.507       .  S
C836        C837   1.405       .  A
C836        H841   1.084       .  S
C837        C838   1.418       .  A
C838        C842   1.510       .  S
C839        C844   1.412       .  A
C839        C848   1.400       .  A
C840        H856   1.110       .  S
C840        H857   1.108       .  S
C840        H858   1.111       .  S
C842        H853   1.109       .  S
C842        H854   1.111       .  S
C842        H855   1.111       .  S
C844        C845   1.404       .  A
C844        C849   1.507       .  S
C845        C846   1.404       .  A
C845        H850   1.084       .  S
C846        C847   1.416       .  A
C847        C848   1.401       .  A
C847        C851   1.508       .  S
C848        H852   1.085       .  S
C849        H859   1.111       .  S
C849        H860   1.110       .  S
C849        H861   1.109       .  S
C851        H862   1.110       .  S
C851        H863   1.108       .  S
C851        H864   1.110       .  S
C865        C866   1.398       .  A
C865        C870   1.406       .  A
C865        H875   1.085       .  S
C866        C871   1.490       .  S
C866        C867   1.407       .  A
C867        C868   1.406       .  A
C867        C872   1.508       .  S
C868        C869   1.417       .  A
C868        H873   1.073       .  S
C869        C870   1.432       .  A
C870        C874   1.513       .  S
C871        C876   1.408       .  A
C871        C880   1.403       .  A
C872        H888   1.110       .  S
C872        H889   1.110       .  S
C872        H890   1.111       .  S
C874        H885   1.110       .  S
C874        H886   1.111       .  S
C874        H887   1.102       .  S
C876        C877   1.403       .  A
C876        C881   1.509       .  S
C877        C878   1.414       .  A
C877        H882   1.082       .  S
C878        C879   1.422       .  A
C879        C880   1.412       .  A
C879        C883   1.506       .  S
C880        H884   1.084       .  S
C881        H891   1.111       .  S
C881        H892   1.110       .  S
C881        H893   1.110       .  S
C883        H894   1.111       .  S
C883        H895   1.110       .  S
C883        H896   1.110       .  S
C897        C898   1.396       .  A
C897        C902   1.402       .  A
C897        H907   1.085       .  S
C898        C903   1.486       .  S
C898        C899   1.412       .  A
C899        C900   1.410       .  A
C899        C904   1.505       .  S
C900        C901   1.407       .  A
C900        H905   1.084       .  S
C901        C902   1.424       .  A
C902        C906   1.508       .  S
C903        C908   1.412       .  A
C903        C912   1.402       .  A
C904        H920   1.110       .  S
C904        H921   1.109       .  S
C904        H922   1.111       .  S
C906        H917   1.109       .  S
C906        H918   1.111       .  S
C906        H919   1.110       .  S
C908        C909   1.407       .  A
C908        C913   1.507       .  S
C909        C910   1.406       .  A
C909        H914   1.084       .  S
C910        C911   1.416       .  A
C911        C912   1.407       .  A
C911        C915   1.507       .  S
C912        H916   1.084       .  S
C913        H923   1.111       .  S
C913        H924   1.111       .  S
C913        H925   1.109       .  S
C915        H926   1.111       .  S
C915        H927   1.110       .  S
C915        H928   1.107       .  S
C929        C930   1.403       .  A
C929        C934   1.408       .  A
C929        H939   1.084       .  S
C930        C935   1.492       .  S
C930        C931   1.413       .  A
C931        C932   1.408       .  A
C931        C936   1.506       .  S
C932        C933   1.402       .  A
C932        H937   1.084       .  S
C933        C934   1.418       .  A
C934        C938   1.508       .  S
C935        C940   1.413       .  A
C935        C944   1.403       .  A
C936        H952   1.110       .  S
C936        H953   1.111       .  S
C936        H954   1.110       .  S
C938        H949   1.110       .  S
C938        H950   1.110       .  S
C938        H951   1.108       .  S
C940        C941   1.408       .  A
C940        C945   1.506       .  S
C941        C942   1.404       .  A
C941        H946   1.084       .  S
C942        C943   1.417       .  A
C943        C944   1.407       .  A
C943        C947   1.509       .  S
C944        H948   1.084       .  S
C945        H955   1.111       .  S
C945        H956   1.110       .  S
C945        H957   1.110       .  S
C947        H958   1.110       .  S
C947        H959   1.108       .  S
C947        H960   1.110       .  S
C961        C962   1.402       .  A
C961        C966   1.409       .  A
C961        H971   1.084       .  S
C962        C967   1.497       .  S
C962        C963   1.415       .  A
C963        C964   1.411       .  A
C963        C968   1.506       .  S
C964        C965   1.405       .  A
C964        H969   1.084       .  S
C965        C966   1.420       .  A
C966        C970   1.509       .  S
C967        C972   1.414       .  A
C967        C976   1.403       .  A
C968        H984   1.109       .  S
C968        H985   1.110       .  S
C968        H986   1.111       .  S
C970        H981   1.111       .  S
C970        H982   1.111       .  S
C970        H983   1.108       .  S
C972        C973   1.412       .  A
C972        C977   1.505       .  S
C973        C974   1.406       .  A
C973        H978   1.084       .  S
C974        C975   1.417       .  A
C975        C976   1.406       .  A
C975        C979   1.507       .  S
C976        H980   1.084       .  S
C977        H987   1.111       .  S
C977        H988   1.110       .  S
C977        H989   1.110       .  S
C979        H990   1.111       .  S
C979        H991   1.108       .  S
C979        H992   1.110       .  S
O993       C1004   1.298       .  A
O993      Eu1029   2.499       .  S
O994       C1005   1.297       .  A
O994      Eu1028   2.499       .  S
O995       C1006   1.288       .  A
O995      Eu1001   2.453       .  S
O996       C1007   1.290       .  A
O996      Eu1001   2.451       .  S
O997       C1007   1.286       .  A
O997      Eu1031   2.437       .  S
O998       C1006   1.291       .  A
O998      Eu1030   2.454       .  S
O999       C1005   1.288       .  A
O999      Eu1001   2.431       .  S
O1000      C1004   1.289       .  A
O1000     Eu1001   2.448       .  S
Eu1001     O1011   2.345       .  S
Eu1001     O1003   2.343       .  S
Eu1001     O1002   2.357       .  S
Eu1001     O1009   2.349       .  S
O1002     Eu1031   2.345       .  S
O1002     Eu1028   2.360       .  S
O1003     Eu1029   2.363       .  S
O1003     Eu1030   2.351       .  S
C1004      C1957   1.492       .  S
C1005      C1678   1.505       .  S
C1006      C1733   1.492       .  S
C1007      C1774   1.474       .  S
H1008      O1009   0.965       .  S
O1009     Eu1030   2.347       .  S
O1009     Eu1028   2.361       .  S
H1010      O1011   0.965       .  S
O1011     Eu1029   2.352       .  S
O1011     Eu1031   2.357       .  S
O1012      C1035   1.295       .  A
O1012     Eu1028   2.485       .  S
O1013      C1036   1.295       .  A
O1013     Eu1029   2.480       .  S
O1014      C1037   1.290       .  A
O1014     Eu1030   2.442       .  S
O1015      C1038   1.291       .  A
O1015     Eu1031   2.458       .  S
O1016      C1039   1.289       .  A
O1016     Eu1031   2.436       .  S
O1017      C1040   1.285       .  A
O1017     Eu1030   2.429       .  S
O1018      C1041   1.289       .  A
O1018     Eu1032   2.448       .  S
O1019      C1042   1.287       .  A
O1019     Eu1032   2.435       .  S
O1020      C1041   1.289       .  A
O1020     Eu1030   2.455       .  S
O1021      C1042   1.288       .  A
O1021     Eu1031   2.447       .  S
O1022      C1037   1.294       .  A
O1022     Eu1028   2.475       .  S
O1023      C1040   1.299       .  A
O1023     Eu1029   2.504       .  S
O1024      C1039   1.299       .  A
O1024     Eu1029   2.508       .  S
O1025      C1038   1.297       .  A
O1025     Eu1028   2.494       .  S
O1026      C1035   1.293       .  A
O1026     Eu1032   2.459       .  S
O1027      C1036   1.292       .  A
O1027     Eu1032   2.463       .  S
Eu1028     O1046   2.366       .  S
Eu1028     O1034   2.369       .  S
Eu1029     O1033   2.366       .  S
Eu1029     O1044   2.364       .  S
Eu1030     O1044   2.348       .  S
Eu1030     O1034   2.340       .  S
Eu1031     O1033   2.348       .  S
Eu1031     O1046   2.350       .  S
Eu1032     O1033   2.351       .  S
Eu1032     O1044   2.346       .  S
Eu1032     O1046   2.363       .  S
Eu1032     O1034   2.346       .  S
C1035      C1701   1.505       .  S
C1036      C1934   1.481       .  S
C1037      C1605   1.486       .  S
C1038      C1646   1.491       .  S
C1039      C1870   1.507       .  S
C1040      C1893   1.493       .  S
C1041      C1829   1.478       .  S
C1042      C1806   1.481       .  S
H1043      O1044   0.967       .  S
H1045      O1046   0.965       .  S
N1047      C1052   1.352       .  A
N1047      H1079   1.039       .  S
N1048      C3039   1.351   1_455  A
N1048      C1056   1.349       .  A
N1049      C1054   1.351       .  A
N1049      H1080   1.039       .  S
N1050      C3041   1.348   1_455  A
N1050      C1058   1.349       .  A
C1051      C1059   1.386       .  A
C1051      C1067   1.413       .  A
C1052      C1068   1.412       .  A
C1052      C1060   1.387       .  A
C1053      C1061   1.388       .  A
C1053      C1070   1.411       .  A
C1054      C1069   1.410       .  A
C1054      C1062   1.386       .  A
C1055      N3032   1.351       .  A
C1055      C1067   1.412       .  A
C1055      C1063   1.386       .  A
C1056      C1070   1.411       .  A
C1056      C1064   1.387       .  A
C1057      N3034   1.348       .  A
C1057      C1065   1.387       .  A
C1057      C1068   1.408       .  A
C1058      C1066   1.385       .  A
C1058      C1069   1.407       .  A
C1059      H1071   1.082       .  S
C1060      H1072   1.082       .  S
C1061      H1073   1.082       .  S
C1062      H1074   1.083       .  S
C1063      C3048   1.375       .  A
C1063      H1075   1.082       .  S
C1064      C3047   1.375   1_455  A
C1064      H1076   1.082       .  S
C1065      C3050   1.372       .  A
C1065      H1077   1.082       .  S
C1066      C3049   1.372   1_455  A
C1066      H1078   1.082       .  S
C1067      C1838   1.488       .  S
C1068      C1742   1.479       .  S
C1069      C1765   1.481       .  S
C1070      C1797   1.478       .  S
O1081      C1092   1.296       .  A
O1081     Eu1117   2.494       .  S
O1082      C1093   1.296       .  A
O1082     Eu1116   2.487       .  S
O1083      C1094   1.288       .  A
O1083     Eu3073   2.446   1_455  S
O1084      C1095   1.287       .  A
O1084     Eu1089   2.443       .  S
O1085      C1095   1.288   1_554  A
O1085     Eu1119   2.438       .  S
O1086      C1094   1.289       .  A
O1086     Eu1118   2.439       .  S
O1087      C1093   1.290       .  A
O1087     Eu1089   2.454   1_554  S
O1088      C1092   1.290       .  A
O1088     Eu1089   2.455       .  S
Eu1089     O3067   2.446       .  S
Eu1089     O1099   2.351       .  S
Eu1089     O3075   2.345       .  S
Eu1089     O1090   2.345   1_556  S
Eu1089     O3081   2.356   1_556  S
O1090     Eu1119   2.344       .  S
O1090     Eu1116   2.360       .  S
O1091     Eu3073   2.345   1_455  S
O1091     Eu3101   2.357   1_455  S
O1091     Eu1118   2.346       .  S
C1092      C1573   1.483       .  S
C1093      C1285   1.487       .  S
C1094      C1358   1.485       .  S
C1095      C1381   1.477       .  S
H1096      O1097   0.965       .  S
O1097     Eu3073   2.356   1_454  S
O1097     Eu1118   2.359   1_554  S
O1097     Eu3100   2.366   1_455  S
H1098      O1099   0.965       .  S
O1099     Eu1117   2.363       .  S
O1099     Eu1119   2.347   1_556  S
O1100      C1123   1.294       .  A
O1101      C1124   1.297       .  A
O1102      C1125   1.290       .  A
O1102     Eu1118   2.453   1_554  S
O1103      C1126   1.293       .  A
O1103     Eu1119   2.464       .  S
O1104     Eu1119   2.456   1_556  S
O1105     Eu1118   2.456       .  S
O1106      C1129   1.287       .  A
O1106     Eu3104   2.441   1_455  S
O1107      C1130   1.290       .  A
O1107     Eu1120   2.451       .  S
O1108      C1129   1.291   1_556  A
O1109      C1130   1.286       .  A
O1110      C1125   1.296       .  A
O1110     Eu3100   2.489   1_455  S
O1111      C1128   1.295       .  A
O1111     Eu2109   2.484   1_455  S
O1112      C1127   1.295       .  A
O1113      C1126   1.294       .  A
O1113     Eu1116   2.479       .  S
O1114      C1123   1.290       .  A
O1114     Eu1120   2.456       .  S
O1115      C1124   1.289       .  A
O1115     Eu1120   2.447   1_556  S
Eu1116     O3094   2.489       .  S
Eu1116     O3081   2.365       .  S
Eu1116     O2114   2.358   1_565  S
Eu1117     O2103   2.484       .  S
Eu1117     O3075   2.357       .  S
Eu1117     O2124   2.365   1_565  S
Eu1120     O3090   2.441       .  S
Eu1120     O1121   2.347   1_554  S
Eu1120     O3116   2.361   1_554  S
Eu1120     O1134   2.349       .  S
Eu1120     O3106   2.348       .  S
O1122     Eu2108   2.358   1_455  S
O1122     Eu3104   2.348   1_455  S
C1123      C1317   1.480       .  S
C1124      C1541   1.487       .  S
C1125      C1221   1.482       .  S
C1126      C1253   1.491       .  S
C1127      C1477   1.494       .  S
C1128      C1509   1.483       .  S
C1129      C1445   1.477       .  S
C1130      C1413   1.479       .  S
H1131      O1132   0.966       .  S
O1132     Eu2109   2.365   1_455  S
O1132     Eu3104   2.361   1_456  S
H1133      O1134   0.965       .  S
N1135      C1140   1.350       .  A
N1135      C1139   1.349       .  A
N1135      H1167   1.038   1_556  S
N1136      C1143   1.349   1_556  A
N1136      C1144   1.349   1_556  A
N1137      C1142   1.352       .  A
N1137      C1141   1.352       .  A
N1137      H1168   1.038   1_556  S
N1138      C1145   1.349   1_556  A
N1138      C1146   1.349   1_556  A
C1139      C1147   1.388       .  A
C1139      C1155   1.409       .  A
C1140      C1156   1.408       .  A
C1140      C1148   1.386       .  A
C1141      C1149   1.387       .  A
C1141      C1158   1.413   1_556  A
C1142      C1157   1.414       .  A
C1142      C1150   1.387       .  A
C1143      C1155   1.409   1_554  A
C1143      C1151   1.386       .  A
C1144      C1158   1.410       .  A
C1144      C1152   1.387       .  A
C1145      C1153   1.386       .  A
C1145      C1156   1.409   1_554  A
C1146      C1154   1.386       .  A
C1146      C1157   1.409   1_554  A
C1147      C1148   1.374       .  A
C1147      H1159   1.083       .  S
C1148      H1160   1.082       .  S
C1149      C1150   1.375       .  A
C1149      H1161   1.082       .  S
C1150      H1162   1.082       .  S
C1151      C1152   1.373       .  A
C1151      H1163   1.082       .  S
C1152      H1164   1.082       .  S
C1153      C1154   1.372       .  A
C1153      H1165   1.082       .  S
C1154      H1166   1.082       .  S
C1155      C1422   1.476       .  S
C1156      C1390   1.478       .  S
C1157      C1349   1.482       .  S
C1158      C1454   1.483       .  S
C1169      C1170   1.535       .  S
C1169      C3159   1.539       .  S
C1169      C1173   1.546       .  S
C1169      C1861   1.548       .  S
C1170      H1177   1.087       .  S
C1170      C3155   1.366       .  D
C1171      C1172   1.547       .  S
C1171      C3154   1.366       .  D
C1171      C1326   1.495       .  S
C1172      C1176   1.542       .  S
C1172      C1174   1.541       .  S
C1172      H1178   1.106       .  S
C1173      H1179   1.080       .  S
C1173      C3158   1.366       .  D
C1174      C3157   1.366       .  D
C1174      C1294   1.486       .  S
C1175      C3153   1.539       .  S
C1175      H1180   1.086       .  S
C1175      C1176   1.367       .  D
C1176      C1902   1.492       .  S
C1181      C1182   1.539       .  S
C1181      C1187   1.545   1_565  S
C1181      C1230   1.548   1_565  S
C1182      H1189   1.086       .  S
C1182      C1183   1.367       .  D
C1183      C1184   1.548       .  S
C1183      C1925   1.487       .  S
C1184      C1188   1.543   1_565  S
C1184      H1190   1.111       .  S
C1185      H1191   1.086       .  S
C1185      C1186   1.366       .  D
C1186      C1966   1.494       .  S
C1187      H1192   1.083   1_545  S
C1187      C1188   1.366       .  D
C1188      C1262   1.495       .  S
C1193      C1194   1.534       .  S
C1193      C3183   1.540       .  S
C1193      C1197   1.548       .  S
C1193      C1637   1.552       .  S
C1194      H1201   1.086       .  S
C1194      C3179   1.366       .  D
C1195      C1196   1.546       .  S
C1195      C3178   1.366       .  D
C1195      C1582   1.495       .  S
C1196      C1200   1.545       .  S
C1196      C1198   1.548       .  S
C1196      H1202   1.111       .  S
C1197      H1203   1.082       .  S
C1197      C3182   1.368       .  D
C1198      C3181   1.368       .  D
C1198      C1550   1.499       .  S
C1199      C3177   1.540       .  S
C1199      H1204   1.086       .  S
C1199      C1200   1.367       .  D
C1200      C1614   1.490       .  S
C1205      C1211   1.546   1_565  S
C1205      C1209   1.541       .  S
C1205      C1518   1.553       .  S
C1206      H1213   1.086       .  S
C1206      C1207   1.369       .  D
C1207      C1669   1.507       .  S
C1208      C1212   1.549   1_565  S
C1208      C1210   1.548       .  S
C1208      H1214   1.109   1_565  S
C1209      H1215   1.086       .  S
C1209      C1210   1.368       .  D
C1210      C1710   1.499       .  S
C1211      H1216   1.083       .  S
C1211      C1212   1.366       .  D
C1212      C1486   1.491       .  S
C1217      C1222   1.407       .  A
C1217      H1227   1.084       .  S
C1218      C1223   1.488       .  S
C1218      C1219   1.412   1_545  A
C1219      C1220   1.406       .  A
C1219      C1224   1.506       .  S
C1220      C1221   1.405       .  A
C1220      H1225   1.084       .  S
C1222      C1226   1.504       .  S
C1223      C1228   1.407       .  A
C1224      H1240   1.110       .  S
C1224      H1241   1.110       .  S
C1224      H1242   1.111       .  S
C1226      H1237   1.109       .  S
C1226      H1238   1.110       .  S
C1226      H1239   1.107       .  S
C1228      C1229   1.405       .  A
C1228      C1233   1.508       .  S
C1229      C1230   1.416       .  A
C1229      H1234   1.079       .  S
C1231      C1232   1.408       .  A
C1231      C1235   1.509       .  S
C1232      H1236   1.085       .  S
C1233      H1243   1.111       .  S
C1233      H1244   1.110       .  S
C1233      H1245   1.109       .  S
C1235      H1246   1.111       .  S
C1235      H1247   1.104       .  S
C1235      H1248   1.110       .  S
C1249      C1254   1.410       .  A
C1249      H1259   1.084       .  S
C1250      C1255   1.488       .  S
C1250      C1251   1.410       .  A
C1251      C1252   1.404       .  A
C1251      C1256   1.506       .  S
C1252      C1253   1.406       .  A
C1252      H1257   1.084       .  S
C1254      C1258   1.506       .  S
C1255      C1260   1.412       .  A
C1256      H1272   1.110       .  S
C1256      H1273   1.110       .  S
C1256      H1274   1.110       .  S
C1258      H1269   1.109       .  S
C1258      H1270   1.111       .  S
C1258      H1271   1.109       .  S
C1260      C1261   1.410       .  A
C1260      C1265   1.505       .  S
C1261      C1262   1.407   1_565  A
C1261      H1266   1.084       .  S
C1263      C1264   1.402       .  A
C1263      C1267   1.509       .  S
C1264      H1268   1.085       .  S
C1265      H1275   1.111       .  S
C1265      H1276   1.110       .  S
C1265      H1277   1.110       .  S
C1267      H1278   1.110       .  S
C1267      H1279   1.107       .  S
C1267      H1280   1.111       .  S
C1281      C3266   1.401       .  A
C1281      C1286   1.407       .  A
C1281      H1291   1.084       .  S
C1282      C1287   1.489       .  S
C1282      C3265   1.401       .  A
C1282      C1283   1.415       .  A
C1283      C1284   1.408       .  A
C1283      C1288   1.507       .  S
C1284      C1285   1.404       .  A
C1284      H1289   1.084       .  S
C1285      C3270   1.419       .  A
C1286      C3269   1.419       .  A
C1286      C1290   1.509       .  S
C1287      C1292   1.414       .  A
C1287      C3280   1.400       .  A
C1288      H3288   1.109       .  S
C1288      H1305   1.111       .  S
C1288      H1306   1.111       .  S
C1290      H3285   1.111       .  S
C1290      H1302   1.111       .  S
C1290      H1303   1.109       .  S
C1292      C1293   1.410       .  A
C1292      C1297   1.505       .  S
C1293      C1294   1.405       .  A
C1293      H1298   1.084       .  S
C1294      C3279   1.417       .  A
C1295      C3278   1.417   1_455  A
C1295      C1296   1.401       .  A
C1295      C1299   1.508       .  S
C1296      C3271   1.400   1_455  A
C1296      H1300   1.085       .  S
C1297      H1307   1.111       .  S
C1297      H1308   1.110       .  S
C1297      H1309   1.110       .  S
C1299      H1310   1.111       .  S
C1299      H1311   1.107       .  S
C1299      H1312   1.110       .  S
H1301      C3274   1.111       .  S
H1304      C3272   1.109       .  S
C1313      C3298   1.400   1_455  A
C1313      C1318   1.402       .  A
C1313      H1323   1.085       .  S
C1314      C1319   1.485       .  S
C1314      C3297   1.400       .  A
C1314      C1315   1.412       .  A
C1315      C1316   1.409       .  A
C1315      C1320   1.507       .  S
C1316      C1317   1.405       .  A
C1316      H1321   1.082       .  S
C1317      C3302   1.417       .  A
C1318      C3301   1.417   1_455  A
C1318      C1322   1.508       .  S
C1319      C3308   1.409       .  A
C1319      C1328   1.402       .  A
C1320      H1336   1.111       .  S
C1320      H1337   1.109       .  S
C1320      H1338   1.111       .  S
C1322      H1333   1.109       .  S
C1322      H1334   1.110       .  S
C1322      H1335   1.108       .  S
C1324      C3303   1.409   1_455  A
C1324      C1325   1.403       .  A
C1324      C1329   1.507       .  S
C1325      C3310   1.409   1_455  A
C1325      H1330   1.084       .  S
C1326      C3309   1.409       .  A
C1326      C1327   1.417       .  A
C1327      C1328   1.408       .  A
C1327      C1331   1.505       .  S
C1328      H1332   1.084       .  S
C1329      H1339   1.111       .  S
C1329      H1340   1.110       .  S
C1329      H1341   1.108   1_455  S
C1331      H1342   1.111       .  S
C1331      H1343   1.106       .  S
C1331      H1344   1.106       .  S
C1345      C1346   1.400       .  A
C1345      C1350   1.401       .  A
C1345      H1355   1.085       .  S
C1346      C1351   1.472       .  S
C1346      C1347   1.409   1_556  A
C1347      C1348   1.399       .  A
C1347      C1352   1.507       .  S
C1348      C1349   1.402   1_554  A
C1348      H1353   1.084       .  S
C1349      C1350   1.415       .  A
C1350      C1354   1.507       .  S
C1351      C1356   1.406   1_556  A
C1351      C1360   1.397       .  A
C1352      H1368   1.110       .  S
C1352      H1369   1.110       .  S
C1352      H1370   1.111       .  S
C1354      H1365   1.110       .  S
C1354      H1366   1.111       .  S
C1354      H1367   1.108       .  S
C1356      C1357   1.400       .  A
C1356      C1361   1.506       .  S
C1357      C1358   1.409   1_554  A
C1357      H1362   1.084       .  S
C1358      C1359   1.422       .  A
C1359      C1360   1.400       .  A
C1359      C1363   1.508       .  S
C1360      H1364   1.084       .  S
C1361      H1371   1.111       .  S
C1361      H1372   1.110   1_554  S
C1361      H1373   1.110       .  S
C1363      H1374   1.111       .  S
C1363      H1375   1.107       .  S
C1363      H1376   1.110       .  S
C1377      C1378   1.397       .  A
C1377      C1382   1.400       .  A
C1377      H1387   1.084       .  S
C1378      C1383   1.468       .  S
C1378      C1379   1.407   1_556  A
C1379      C1380   1.397       .  A
C1379      C1384   1.507       .  S
C1380      C1381   1.406   1_554  A
C1380      H1385   1.084       .  S
C1381      C1382   1.420       .  A
C1382      C1386   1.509       .  S
C1383      C1388   1.408       .  A
C1383      C1392   1.399   1_556  A
C1384      H1400   1.110       .  S
C1384      H1401   1.110       .  S
C1384      H1402   1.110       .  S
C1386      H1397   1.108       .  S
C1386      H1398   1.111       .  S
C1386      H1399   1.109       .  S
C1388      C1389   1.398       .  A
C1388      C1393   1.506       .  S
C1389      C1390   1.402       .  A
C1389      H1394   1.084       .  S
C1390      C1391   1.415   1_556  A
C1391      C1392   1.398       .  A
C1391      C1395   1.508       .  S
C1392      H1396   1.085       .  S
C1393      H1403   1.111       .  S
C1393      H1404   1.110       .  S
C1393      H1405   1.110       .  S
C1395      H1406   1.111       .  S
C1395      H1407   1.107       .  S
C1395      H1408   1.110       .  S
C1409      C1410   1.397       .  A
C1409      C1414   1.400       .  A
C1409      H1419   1.084       .  S
C1410      C1415   1.469   1_554  S
C1410      C1411   1.407   1_554  A
C1411      C1412   1.399       .  A
C1411      C1416   1.507       .  S
C1412      C1413   1.407   1_556  A
C1412      H1417   1.084       .  S
C1413      C1414   1.420       .  A
C1414      C1418   1.510       .  S
C1415      C1420   1.410       .  A
C1415      C1424   1.399   1_556  A
C1416      H1432   1.110       .  S
C1416      H1433   1.109       .  S
C1416      H1434   1.111       .  S
C1418      H1429   1.109       .  S
C1418      H1430   1.111       .  S
C1418      H1431   1.111       .  S
C1420      C1421   1.400       .  A
C1420      C1425   1.507       .  S
C1421      C1422   1.401       .  A
C1421      H1426   1.084       .  S
C1422      C1423   1.414   1_556  A
C1423      C1424   1.397       .  A
C1423      C1427   1.508       .  S
C1424      H1428   1.085       .  S
C1425      H1435   1.111       .  S
C1425      H1436   1.110       .  S
C1425      H1437   1.110       .  S
C1427      H1438   1.110       .  S
C1427      H1439   1.108       .  S
C1427      H1440   1.110       .  S
C1441      C1442   1.400   1_556  A
C1441      C1446   1.403       .  A
C1441      H1451   1.084       .  S
C1442      C1447   1.474       .  S
C1442      C1443   1.408       .  A
C1443      C1444   1.399       .  A
C1443      C1448   1.507       .  S
C1444      C1445   1.405       .  A
C1444      H1449   1.084       .  S
C1445      C1446   1.419   1_554  A
C1446      C1450   1.509       .  S
C1447      C1452   1.410   1_554  A
C1447      C1456   1.400       .  A
C1448      H1464   1.110       .  S
C1448      H1465   1.110       .  S
C1448      H1466   1.111       .  S
C1450      H1461   1.111       .  S
C1450      H1462   1.109       .  S
C1450      H1463   1.111       .  S
C1452      C1453   1.401       .  A
C1452      C1457   1.506       .  S
C1453      C1454   1.403   1_556  A
C1453      H1458   1.084       .  S
C1454      C1455   1.415       .  A
C1455      C1456   1.400       .  A
C1455      C1459   1.507       .  S
C1456      H1460   1.085       .  S
C1457      H1467   1.111       .  S
C1457      H1468   1.110       .  S
C1457      H1469   1.110       .  S
C1459      H1470   1.110       .  S
C1459      H1471   1.108       .  S
C1459      H1472   1.110       .  S
C1473      C1478   1.402       .  A
C1473      H1483   1.084       .  S
C1474      C1479   1.485       .  S
C1474      C1475   1.410       .  A
C1475      C1476   1.411       .  A
C1475      C1480   1.505       .  S
C1476      H1481   1.083       .  S
C1477      C1478   1.423       .  A
C1478      C1482   1.511       .  S
C1479      C1484   1.411       .  A
C1480      H1496   1.111       .  S
C1480      H1497   1.110       .  S
C1480      H1498   1.111       .  S
C1482      H1493   1.109       .  S
C1482      H1494   1.111       .  S
C1482      H1495   1.111       .  S
C1484      C1485   1.405       .  A
C1484      C1489   1.507       .  S
C1485      C1486   1.405   1_565  A
C1485      H1490   1.083       .  S
C1487      C1488   1.406       .  A
C1487      C1491   1.502       .  S
C1488      H1492   1.085       .  S
C1489      H1499   1.111       .  S
C1489      H1500   1.110       .  S
C1489      H1501   1.110       .  S
C1491      H1502   1.110       .  S
C1491      H1503   1.106       .  S
C1491      H1504   1.110       .  S
C1505      C1510   1.406       .  A
C1505      H1515   1.084       .  S
C1506      C1511   1.492       .  S
C1506      C1507   1.413       .  A
C1507      C1508   1.408       .  A
C1507      C1512   1.505       .  S
C1508      C1509   1.403       .  A
C1508      H1513   1.082       .  S
C1510      C1514   1.509       .  S
C1511      C1516   1.408       .  A
C1512      H1528   1.110       .  S
C1512      H1529   1.110       .  S
C1512      H1530   1.111       .  S
C1514      H1525   1.110       .  S
C1514      H1526   1.111       .  S
C1514      H1527   1.108       .  S
C1516      C1517   1.408       .  A
C1516      C1521   1.507       .  S
C1517      H1522   1.077       .  S
C1518      C1519   1.433       .  A
C1519      C1520   1.409       .  A
C1519      C1523   1.510       .  S
C1520      H1524   1.085       .  S
C1521      H1531   1.111       .  S
C1521      H1532   1.110       .  S
C1521      H1533   1.111       .  S
C1523      H1534   1.110       .  S
C1523      H1535   1.099       .  S
C1523      H1536   1.111       .  S
C1537      C3522   1.405   1_455  A
C1537      C1542   1.408       .  A
C1537      H1547   1.084       .  S
C1538      C1543   1.492       .  S
C1538      C3521   1.405       .  A
C1538      C1539   1.412       .  A
C1539      C1540   1.407       .  A
C1539      C1544   1.506       .  S
C1540      C1541   1.406       .  A
C1540      H1545   1.084       .  S
C1541      C3526   1.415       .  A
C1542      C3525   1.415   1_455  A
C1542      C1546   1.506       .  S
C1543      C3532   1.412       .  A
C1543      C1552   1.401       .  A
C1544      H1560   1.109       .  S
C1544      H1561   1.110       .  S
C1544      H1562   1.111       .  S
C1546      H1557   1.111       .  S
C1546      H1558   1.109       .  S
C1546      H1559   1.111       .  S
C1548      C3527   1.412   1_455  A
C1548      C1549   1.407       .  A
C1548      C1553   1.507       .  S
C1549      C3534   1.407   1_455  A
C1549      H1554   1.084       .  S
C1550      C3533   1.407       .  A
C1550      C1551   1.421       .  A
C1551      C1552   1.407       .  A
C1551      C1555   1.503       .  S
C1552      H1556   1.085       .  S
C1553      H1563   1.111       .  S
C1553      H1564   1.109       .  S
C1553      H1565   1.110       .  S
C1555      H1566   1.111       .  S
C1555      H1567   1.096       .  S
C1555      H1568   1.110       .  S
C1569      C3554   1.406       .  A
C1569      C1574   1.411       .  A
C1569      H1579   1.084       .  S
C1570      C1575   1.492       .  S
C1570      C3553   1.406       .  A
C1570      C1571   1.414       .  A
C1571      C1572   1.405       .  A
C1571      C1576   1.508       .  S
C1572      C1573   1.402       .  A
C1572      H1577   1.082       .  S
C1573      C3558   1.414       .  A
C1574      C3557   1.414       .  A
C1574      C1578   1.507       .  S
C1575      C3564   1.415       .  A
C1575      C1584   1.399       .  A
C1576      H1592   1.110       .  S
C1576      H1593   1.108       .  S
C1576      H1594   1.111       .  S
C1578      H1589   1.109       .  S
C1578      H1590   1.111       .  S
C1578      H1591   1.110       .  S
C1580      C3559   1.415       .  A
C1580      C1581   1.412       .  A
C1580      C1585   1.507       .  S
C1581      C3566   1.405       .  A
C1581      H1586   1.084       .  S
C1582      C3565   1.405       .  A
C1582      C1583   1.418       .  A
C1583      C1584   1.405       .  A
C1583      C1587   1.506       .  S
C1584      H1588   1.084       .  S
C1585      H1595   1.111       .  S
C1585      H1596   1.110       .  S
C1585      H1597   1.108       .  S
C1587      H1598   1.111       .  S
C1587      H1599   1.110       .  S
C1587      H1600   1.106       .  S
C1601      C1602   1.403       .  A
C1601      C1606   1.409       .  A
C1601      H1611   1.084       .  S
C1602      C1607   1.483       .  S
C1602      C1603   1.409       .  A
C1603      C1604   1.400       .  A
C1603      C1608   1.508       .  S
C1604      C1605   1.407       .  A
C1604      H1609   1.084       .  S
C1605      C1606   1.417       .  A
C1606      C1610   1.507       .  S
C1607      C1612   1.411       .  A
C1607      C1616   1.400       .  A
C1608      H1624   1.110       .  S
C1608      H1625   1.109       .  S
C1608      H1626   1.111       .  S
C1610      H1621   1.110       .  S
C1610      H1622   1.111       .  S
C1610      H1623   1.111       .  S
C1612      C1613   1.407       .  A
C1612      C1617   1.506       .  S
C1613      C1614   1.405       .  A
C1613      H1618   1.084       .  S
C1614      C1615   1.420       .  A
C1615      C1616   1.403       .  A
C1615      C1619   1.509       .  S
C1616      H1620   1.085       .  S
C1617      H1627   1.110       .  S
C1617      H1628   1.110       .  S
C1617      H1629   1.109       .  S
C1619      H1630   1.111       .  S
C1619      H1631   1.107       .  S
C1619      H1632   1.110       .  S
C1633      C1634   1.398       .  A
C1633      C1638   1.408       .  A
C1633      H1643   1.085       .  S
C1634      C1639   1.492       .  S
C1634      C1635   1.407       .  A
C1635      C1636   1.408       .  A
C1635      C1640   1.508       .  S
C1636      C1637   1.417       .  A
C1636      H1641   1.076       .  S
C1637      C1638   1.432       .  A
C1638      C1642   1.510       .  S
C1639      C1644   1.412       .  A
C1639      C1648   1.403       .  A
C1640      H1656   1.110       .  S
C1640      H1657   1.108       .  S
C1640      H1658   1.111       .  S
C1642      H1653   1.110       .  S
C1642      H1654   1.111       .  S
C1642      H1655   1.100       .  S
C1644      C1645   1.408       .  A
C1644      C1649   1.507       .  S
C1645      C1646   1.407       .  A
C1645      H1650   1.084       .  S
C1646      C1647   1.419       .  A
C1647      C1648   1.409       .  A
C1647      C1651   1.504       .  S
C1648      H1652   1.084       .  S
C1649      H1659   1.111       .  S
C1649      H1660   1.110       .  S
C1649      H1661   1.109       .  S
C1651      H1662   1.110       .  S
C1651      H1663   1.106       .  S
C1651      H1664   1.110       .  S
C1665      C1666   1.398       .  A
C1665      C1670   1.403       .  A
C1665      H1675   1.085       .  S
C1666      C1671   1.487       .  S
C1666      C1667   1.410       .  A
C1667      C1668   1.410       .  A
C1667      C1672   1.506       .  S
C1668      C1669   1.408       .  A
C1668      H1673   1.078       .  S
C1669      C1670   1.422       .  A
C1670      C1674   1.506       .  S
C1671      C1676   1.406       .  A
C1671      C1680   1.403       .  A
C1672      H1688   1.110       .  S
C1672      H1689   1.110       .  S
C1672      H1690   1.111       .  S
C1674      H1685   1.111       .  S
C1674      H1686   1.110       .  S
C1674      H1687   1.105       .  S
C1676      C1677   1.401       .  A
C1676      C1681   1.508       .  S
C1677      C1678   1.415       .  A
C1677      H1682   1.083       .  S
C1678      C1679   1.423       .  A
C1679      C1680   1.412       .  A
C1679      C1683   1.507       .  S
C1680      H1684   1.084       .  S
C1681      H1691   1.111       .  S
C1681      H1692   1.110       .  S
C1681      H1693   1.110       .  S
C1683      H1694   1.111       .  S
C1683      H1695   1.110       .  S
C1683      H1696   1.109       .  S
C1697      C1698   1.403       .  A
C1697      C1702   1.412       .  A
C1697      H1707   1.084       .  S
C1698      C1703   1.490       .  S
C1698      C1699   1.407       .  A
C1699      C1700   1.404       .  A
C1699      C1704   1.507       .  S
C1700      C1701   1.412       .  A
C1700      H1705   1.083       .  S
C1701      C1702   1.424       .  A
C1702      C1706   1.506       .  S
C1703      C1708   1.412       .  A
C1703      C1712   1.401       .  A
C1704      H1720   1.110       .  S
C1704      H1721   1.109       .  S
C1704      H1722   1.111       .  S
C1706      H1717   1.104       .  S
C1706      H1718   1.111       .  S
C1706      H1719   1.110       .  S
C1708      C1709   1.406       .  A
C1708      C1713   1.507       .  S
C1709      C1710   1.406       .  A
C1709      H1714   1.084       .  S
C1710      C1711   1.418       .  A
C1711      C1712   1.410       .  A
C1711      C1715   1.502       .  S
C1712      H1716   1.084       .  S
C1713      H1723   1.111       .  S
C1713      H1724   1.110       .  S
C1713      H1725   1.110       .  S
C1715      H1726   1.111       .  S
C1715      H1727   1.105       .  S
C1715      H1728   1.107       .  S
C1729      C1730   1.398       .  A
C1729      C1734   1.404       .  A
C1729      H1739   1.084       .  S
C1730      C1735   1.475       .  S
C1730      C1731   1.406       .  A
C1731      C1732   1.400       .  A
C1731      C1736   1.507       .  S
C1732      C1733   1.409       .  A
C1732      H1737   1.080       .  S
C1733      C1734   1.424       .  A
C1734      C1738   1.508       .  S
C1735      C1740   1.410       .  A
C1735      C1744   1.401       .  A
C1736      H1752   1.110       .  S
C1736      H1753   1.110       .  S
C1736      H1754   1.111       .  S
C1738      H1749   1.110       .  S
C1738      H1750   1.111       .  S
C1738      H1751   1.109       .  S
C1740      C1741   1.402       .  A
C1740      C1745   1.506       .  S
C1741      C1742   1.402       .  A
C1741      H1746   1.084       .  S
C1742      C1743   1.413       .  A
C1743      C1744   1.400       .  A
C1743      C1747   1.508       .  S
C1744      H1748   1.085       .  S
C1745      H1755   1.111       .  S
C1745      H1756   1.110       .  S
C1745      H1757   1.110       .  S
C1747      H1758   1.110       .  S
C1747      H1759   1.108       .  S
C1747      H1760   1.111       .  S
C1761      C1762   1.399       .  A
C1761      C1766   1.399       .  A
C1761      H1771   1.085       .  S
C1762      C1767   1.469       .  S
C1762      C1763   1.410       .  A
C1763      C1764   1.399       .  A
C1763      C1768   1.507       .  S
C1764      C1765   1.403       .  A
C1764      H1769   1.084       .  S
C1765      C1766   1.414       .  A
C1766      C1770   1.507       .  S
C1767      C1772   1.408       .  A
C1767      C1776   1.397       .  A
C1768      H1784   1.110       .  S
C1768      H1785   1.110       .  S
C1768      H1786   1.111       .  S
C1770      H1781   1.110       .  S
C1770      H1782   1.110       .  S
C1770      H1783   1.108       .  S
C1772      C1773   1.400       .  A
C1772      C1777   1.507       .  S
C1773      C1774   1.404       .  A
C1773      H1778   1.084       .  S
C1774      C1775   1.420       .  A
C1775      C1776   1.400       .  A
C1775      C1779   1.510       .  S
C1776      H1780   1.084       .  S
C1777      H1787   1.111       .  S
C1777      H1788   1.110       .  S
C1777      H1789   1.109       .  S
C1779      H1790   1.111       .  S
C1779      H1791   1.111       .  S
C1779      H1792   1.109       .  S
C1793      C1794   1.399       .  A
C1793      C1798   1.397       .  A
C1793      H1803   1.085       .  S
C1794      C1799   1.467       .  S
C1794      C1795   1.409       .  A
C1795      C1796   1.399       .  A
C1795      C1800   1.507       .  S
C1796      C1797   1.403       .  A
C1796      H1801   1.084       .  S
C1797      C1798   1.414       .  A
C1798      C1802   1.507       .  S
C1799      C1804   1.406       .  A
C1799      C1808   1.396       .  A
C1800      H1816   1.110       .  S
C1800      H1817   1.110       .  S
C1800      H1818   1.111       .  S
C1802      H1813   1.110       .  S
C1802      H1814   1.110       .  S
C1802      H1815   1.107       .  S
C1804      C1805   1.400       .  A
C1804      C1809   1.507       .  S
C1805      C1806   1.409       .  A
C1805      H1810   1.084       .  S
C1806      C1807   1.420       .  A
C1807      C1808   1.398       .  A
C1807      C1811   1.508       .  S
C1808      H1812   1.085       .  S
C1809      H1819   1.111       .  S
C1809      H1820   1.110       .  S
C1809      H1821   1.110       .  S
C1811      H1822   1.111       .  S
C1811      H1823   1.110       .  S
C1811      H1824   1.110       .  S
C1825      C1826   1.400       .  A
C1825      C1830   1.403       .  A
C1825      H1835   1.084       .  S
C1826      C1831   1.478       .  S
C1826      C1827   1.411       .  A
C1827      C1828   1.403       .  A
C1827      C1832   1.507       .  S
C1828      C1829   1.405       .  A
C1828      H1833   1.084       .  S
C1829      C1830   1.418       .  A
C1830      C1834   1.510       .  S
C1831      C1836   1.412       .  A
C1831      C1840   1.400       .  A
C1832      H1848   1.110       .  S
C1832      H1849   1.108       .  S
C1832      H1850   1.111       .  S
C1834      H1845   1.109       .  S
C1834      H1846   1.111       .  S
C1834      H1847   1.111       .  S
C1836      C1837   1.404       .  A
C1836      C1841   1.507       .  S
C1837      C1838   1.404       .  A
C1837      H1842   1.084       .  S
C1838      C1839   1.416       .  A
C1839      C1840   1.401       .  A
C1839      C1843   1.508       .  S
C1840      H1844   1.085       .  S
C1841      H1851   1.111       .  S
C1841      H1852   1.110       .  S
C1841      H1853   1.109       .  S
C1843      H1854   1.110       .  S
C1843      H1855   1.108       .  S
C1843      H1856   1.110       .  S
C1857      C1858   1.398       .  A
C1857      C1862   1.406       .  A
C1857      H1867   1.085       .  S
C1858      C1863   1.490       .  S
C1858      C1859   1.407       .  A
C1859      C1860   1.406       .  A
C1859      C1864   1.508       .  S
C1860      C1861   1.417       .  A
C1860      H1865   1.073       .  S
C1861      C1862   1.432       .  A
C1862      C1866   1.513       .  S
C1863      C1868   1.408       .  A
C1863      C1872   1.403       .  A
C1864      H1880   1.110       .  S
C1864      H1881   1.110       .  S
C1864      H1882   1.111       .  S
C1866      H1877   1.110       .  S
C1866      H1878   1.111       .  S
C1866      H1879   1.102       .  S
C1868      C1869   1.403       .  A
C1868      C1873   1.509       .  S
C1869      C1870   1.414       .  A
C1869      H1874   1.082       .  S
C1870      C1871   1.422       .  A
C1871      C1872   1.412       .  A
C1871      C1875   1.506       .  S
C1872      H1876   1.084       .  S
C1873      H1883   1.111       .  S
C1873      H1884   1.110       .  S
C1873      H1885   1.110       .  S
C1875      H1886   1.111       .  S
C1875      H1887   1.110       .  S
C1875      H1888   1.110       .  S
C1889      C1890   1.396       .  A
C1889      C1894   1.402       .  A
C1889      H1899   1.085       .  S
C1890      C1895   1.486       .  S
C1890      C1891   1.412       .  A
C1891      C1892   1.410       .  A
C1891      C1896   1.505       .  S
C1892      C1893   1.407       .  A
C1892      H1897   1.084       .  S
C1893      C1894   1.424       .  A
C1894      C1898   1.508       .  S
C1895      C1900   1.412       .  A
C1895      C1904   1.402       .  A
C1896      H1912   1.110       .  S
C1896      H1913   1.109       .  S
C1896      H1914   1.111       .  S
C1898      H1909   1.109       .  S
C1898      H1910   1.111       .  S
C1898      H1911   1.110       .  S
C1900      C1901   1.407       .  A
C1900      C1905   1.507       .  S
C1901      C1902   1.406       .  A
C1901      H1906   1.084       .  S
C1902      C1903   1.416       .  A
C1903      C1904   1.407       .  A
C1903      C1907   1.507       .  S
C1904      H1908   1.084       .  S
C1905      H1915   1.111       .  S
C1905      H1916   1.111       .  S
C1905      H1917   1.109       .  S
C1907      H1918   1.111       .  S
C1907      H1919   1.110       .  S
C1907      H1920   1.107       .  S
C1921      C1922   1.403       .  A
C1921      C1926   1.408       .  A
C1921      H1931   1.084       .  S
C1922      C1927   1.492       .  S
C1922      C1923   1.413       .  A
C1923      C1924   1.408       .  A
C1923      C1928   1.506       .  S
C1924      C1925   1.402       .  A
C1924      H1929   1.084       .  S
C1925      C1926   1.418       .  A
C1926      C1930   1.508       .  S
C1927      C1932   1.413       .  A
C1927      C1936   1.403       .  A
C1928      H1944   1.110       .  S
C1928      H1945   1.111       .  S
C1928      H1946   1.110       .  S
C1930      H1941   1.110       .  S
C1930      H1942   1.110       .  S
C1930      H1943   1.108       .  S
C1932      C1933   1.408       .  A
C1932      C1937   1.506       .  S
C1933      C1934   1.404       .  A
C1933      H1938   1.084       .  S
C1934      C1935   1.417       .  A
C1935      C1936   1.407       .  A
C1935      C1939   1.509       .  S
C1936      H1940   1.084       .  S
C1937      H1947   1.111       .  S
C1937      H1948   1.110       .  S
C1937      H1949   1.110       .  S
C1939      H1950   1.110       .  S
C1939      H1951   1.108       .  S
C1939      H1952   1.110       .  S
C1953      C1954   1.402       .  A
C1953      C1958   1.409       .  A
C1953      H1963   1.084       .  S
C1954      C1959   1.497       .  S
C1954      C1955   1.415       .  A
C1955      C1956   1.411       .  A
C1955      C1960   1.506       .  S
C1956      C1957   1.405       .  A
C1956      H1961   1.084       .  S
C1957      C1958   1.420       .  A
C1958      C1962   1.509       .  S
C1959      C1964   1.414       .  A
C1959      C1968   1.403       .  A
C1960      H1976   1.109       .  S
C1960      H1977   1.110       .  S
C1960      H1978   1.111       .  S
C1962      H1973   1.111       .  S
C1962      H1974   1.111       .  S
C1962      H1975   1.108       .  S
C1964      C1965   1.412       .  A
C1964      C1969   1.505       .  S
C1965      C1966   1.406       .  A
C1965      H1970   1.084       .  S
C1966      C1967   1.417       .  A
C1967      C1968   1.406       .  A
C1967      C1971   1.507       .  S
C1968      H1972   1.084       .  S
C1969      H1979   1.111       .  S
C1969      H1980   1.110       .  S
C1969      H1981   1.110       .  S
C1971      H1982   1.111       .  S
C1971      H1983   1.108       .  S
C1971      H1984   1.110       .  S
O1985      C1996   1.298       .  A
O1985     Eu2021   2.499       .  S
O1986      C1997   1.297       .  A
O1986     Eu2020   2.499       .  S
O1987      C1998   1.288       .  A
O1987     Eu1993   2.453       .  S
O1988      C1999   1.290       .  A
O1988     Eu1993   2.451       .  S
O1989      C1999   1.286       .  A
O1989     Eu2023   2.438       .  S
O1990      C1998   1.291       .  A
O1990     Eu2022   2.454       .  S
O1991      C1997   1.288       .  A
O1991     Eu1993   2.432       .  S
O1992      C1996   1.289       .  A
O1992     Eu1993   2.448       .  S
Eu1993     O2003   2.345       .  S
Eu1993     O1995   2.343       .  S
Eu1993     O1994   2.357       .  S
Eu1993     O2001   2.349       .  S
O1994     Eu2023   2.345       .  S
O1994     Eu2020   2.360       .  S
O1995     Eu2021   2.363       .  S
O1995     Eu2022   2.350       .  S
C1996      C2949   1.492       .  S
C1997      C2670   1.505       .  S
C1998      C2725   1.492       .  S
C1999      C2766   1.474       .  S
H2000      O2001   0.965       .  S
O2001     Eu2022   2.347       .  S
O2001     Eu2020   2.361       .  S
H2002      O2003   0.965       .  S
O2003     Eu2021   2.352       .  S
O2003     Eu2023   2.357       .  S
O2004      C2027   1.295       .  A
O2004     Eu2020   2.485       .  S
O2005      C2028   1.295       .  A
O2005     Eu2021   2.480       .  S
O2006      C2029   1.290       .  A
O2006     Eu2022   2.442       .  S
O2007      C2030   1.291       .  A
O2007     Eu2023   2.457       .  S
O2008      C2031   1.289       .  A
O2008     Eu2023   2.436       .  S
O2009      C2032   1.285       .  A
O2009     Eu2022   2.429       .  S
O2010      C2033   1.289       .  A
O2010     Eu2024   2.448       .  S
O2011      C2034   1.288       .  A
O2011     Eu2024   2.435       .  S
O2012      C2033   1.289       .  A
O2012     Eu2022   2.455       .  S
O2013      C2034   1.288       .  A
O2013     Eu2023   2.447       .  S
O2014      C2029   1.294       .  A
O2014     Eu2020   2.475       .  S
O2015      C2032   1.299       .  A
O2015     Eu2021   2.504       .  S
O2016      C2031   1.299       .  A
O2016     Eu2021   2.508       .  S
O2017      C2030   1.297       .  A
O2017     Eu2020   2.495       .  S
O2018      C2027   1.293       .  A
O2018     Eu2024   2.460       .  S
O2019      C2028   1.292       .  A
O2019     Eu2024   2.464       .  S
Eu2020     O2038   2.366       .  S
Eu2020     O2026   2.368       .  S
Eu2021     O2025   2.366       .  S
Eu2021     O2036   2.364       .  S
Eu2022     O2036   2.348       .  S
Eu2022     O2026   2.340       .  S
Eu2023     O2025   2.348       .  S
Eu2023     O2038   2.350       .  S
Eu2024     O2025   2.351       .  S
Eu2024     O2036   2.346       .  S
Eu2024     O2038   2.363       .  S
Eu2024     O2026   2.346       .  S
C2027      C2693   1.505       .  S
C2028      C2926   1.481       .  S
C2029      C2597   1.486       .  S
C2030      C2638   1.491       .  S
C2031      C2862   1.507       .  S
C2032      C2885   1.493       .  S
C2033      C2821   1.478       .  S
C2034      C2798   1.481       .  S
H2035      O2036   0.967       .  S
H2037      O2038   0.965       .  S
N2039      C2044   1.352   1_565  A
N2039      C3035   1.352       .  A
N2039      H2071   1.039       .  S
N2040      C2048   1.349       .  A
N2041      C2046   1.351       .  A
N2041      C3037   1.350   1_545  A
N2041      H2072   1.039       .  S
N2042      C2050   1.349       .  A
C2043      N3031   1.352       .  A
C2043      C2051   1.386       .  A
C2043      C2059   1.413       .  A
C2044      C2060   1.412       .  A
C2044      C2052   1.387       .  A
C2045      N3033   1.350       .  A
C2045      C2053   1.388       .  A
C2045      C2062   1.411       .  A
C2046      C2061   1.410       .  A
C2046      C2054   1.386       .  A
C2047      C2059   1.412       .  A
C2047      C2055   1.386       .  A
C2048      C2062   1.411       .  A
C2048      C2056   1.387       .  A
C2049      C2057   1.387       .  A
C2049      C2060   1.408       .  A
C2050      C2058   1.385       .  A
C2050      C2061   1.407       .  A
C2051      C3044   1.376       .  A
C2051      H2063   1.082       .  S
C2052      C3043   1.376   1_545  A
C2052      H2064   1.082       .  S
C2053      C3046   1.373       .  A
C2053      H2065   1.082       .  S
C2054      C3045   1.373   1_545  A
C2054      H2066   1.083       .  S
C2055      H2067   1.082       .  S
C2056      H2068   1.082       .  S
C2057      H2069   1.082       .  S
C2058      H2070   1.082       .  S
C2059      C2830   1.487       .  S
C2060      C2734   1.479       .  S
C2061      C2757   1.481       .  S
C2062      C2789   1.478       .  S
O2073      C2084   1.296       .  A
O2073     Eu2109   2.494       .  S
O2074      C2085   1.296       .  A
O2074     Eu2108   2.487       .  S
O2075      C2086   1.288       .  A
O2076      C2087   1.287       .  A
O2076     Eu2081   2.443       .  S
O2077      C2087   1.288   1_554  A
O2077     Eu2111   2.439       .  S
O2078      C2086   1.288       .  A
O2078     Eu2110   2.439       .  S
O2079      C2085   1.290       .  A
O2079     Eu2081   2.454   1_554  S
O2080      C2084   1.290       .  A
O2080     Eu2081   2.455       .  S
Eu2081     O2091   2.351       .  S
Eu2081     O2082   2.345   1_556  S
O2082     Eu2111   2.344       .  S
O2082     Eu2108   2.360       .  S
O2083     Eu2110   2.346       .  S
C2084      C2565   1.483       .  S
C2085      C2277   1.487       .  S
C2086      C2350   1.485       .  S
C2087      C2373   1.477       .  S
H2088      O2089   0.965       .  S
O2089     Eu2110   2.359   1_554  S
H2090      O2091   0.965       .  S
O2091     Eu2109   2.363       .  S
O2091     Eu2111   2.347   1_556  S
O2092      C2115   1.294       .  A
O2092     Eu3100   2.481   1_545  S
O2093      C2116   1.297       .  A
O2093     Eu3101   2.494   1_545  S
O2094      C2117   1.290       .  A
O2094     Eu2110   2.453   1_554  S
O2095      C2118   1.293       .  A
O2095     Eu2111   2.464       .  S
O2096      C3111   1.290       .  A
O2096     Eu2111   2.456   1_556  S
O2097      C3112   1.291       .  A
O2097     Eu2110   2.456       .  S
O2098      C2121   1.287       .  A
O2099      C2122   1.290       .  A
O2099     Eu2112   2.451       .  S
O2100      C2121   1.291   1_556  A
O2100     Eu3102   2.453   1_545  S
O2101      C2122   1.286       .  A
O2101     Eu3103   2.434   1_545  S
O2102      C2117   1.296       .  A
O2103      C2120   1.295       .  A
O2104      C2119   1.295       .  A
O2104     Eu3101   2.478       .  S
O2105      C2118   1.294       .  A
O2105     Eu2108   2.479       .  S
O2106      C2115   1.290       .  A
O2106     Eu2112   2.456       .  S
O2107      C2116   1.289       .  A
O2107     Eu2112   2.447   1_556  S
Eu2108     O3084   2.481       .  S
Eu2108     O3118   2.366       .  S
Eu2109     O3085   2.494       .  S
Eu2109     O3096   2.478       .  S
Eu2109     O3105   2.363       .  S
Eu2110     O3092   2.453       .  S
Eu2110     O3116   2.352       .  S
Eu2110     O3106   2.347   1_556  S
Eu2111     O3093   2.434       .  S
Eu2111     O3105   2.347   1_554  S
Eu2111     O3118   2.353       .  S
Eu2112     O2113   2.347   1_554  S
Eu2112     O2126   2.349       .  S
O2113     Eu3101   2.363   1_545  S
O2113     Eu3103   2.347   1_546  S
O2114     Eu3102   2.347   1_544  S
C2115      C2309   1.480       .  S
C2116      C2533   1.487       .  S
C2117      C2213   1.482       .  S
C2118      C2245   1.491       .  S
C2119      O3088   1.290       .  A
C2119      C2469   1.495   1_565  S
C2120      O3089   1.291       .  A
C2120      C2501   1.483       .  S
C2121      C2437   1.477       .  S
C2122      C2405   1.479       .  S
H2123      O2124   0.966       .  S
O2124     Eu3102   2.352   1_545  S
H2125      O2126   0.965       .  S
O2126     Eu3100   2.367   1_545  S
O2126     Eu3103   2.353   1_545  S
N2127      C2132   1.350       .  A
N2127      C2131   1.349       .  A
N2127      H2159   1.038   1_556  S
N2128      C2135   1.349   1_556  A
N2128      C2136   1.349   1_556  A
N2129      C2134   1.352       .  A
N2129      C2133   1.352       .  A
N2129      H2160   1.038   1_556  S
N2130      C2137   1.349   1_556  A
N2130      C2138   1.348   1_556  A
C2131      C2139   1.388       .  A
C2131      C2147   1.409       .  A
C2132      C2148   1.408       .  A
C2132      C2140   1.387       .  A
C2133      C2141   1.387       .  A
C2133      C2150   1.413   1_556  A
C2134      C2149   1.414       .  A
C2134      C2142   1.387       .  A
C2135      C2147   1.409   1_554  A
C2135      C2143   1.386       .  A
C2136      C2150   1.410       .  A
C2136      C2144   1.387       .  A
C2137      C2145   1.386       .  A
C2137      C2148   1.409   1_554  A
C2138      C2146   1.386       .  A
C2138      C2149   1.409   1_554  A
C2139      C2140   1.374       .  A
C2139      H2151   1.083       .  S
C2140      H2152   1.082       .  S
C2141      C2142   1.375       .  A
C2141      H2153   1.082       .  S
C2142      H2154   1.082       .  S
C2143      C2144   1.373       .  A
C2143      H2155   1.082       .  S
C2144      H2156   1.082       .  S
C2145      C2146   1.372       .  A
C2145      H2157   1.082       .  S
C2146      H2158   1.082       .  S
C2147      C2414   1.476       .  S
C2148      C2382   1.478       .  S
C2149      C2341   1.482       .  S
C2150      C2446   1.483       .  S
C2161      C2162   1.534       .  S
C2161      C2165   1.546       .  S
C2161      C2853   1.548       .  S
C2162      H2169   1.087       .  S
C2163      C2164   1.547   1_455  S
C2163      C2318   1.495   1_455  S
C2164      C2168   1.542       .  S
C2164      C2166   1.540   1_655  S
C2164      H2170   1.106       .  S
C2165      H2171   1.080       .  S
C2166      C2286   1.486   1_455  S
C2167      H2172   1.086       .  S
C2167      C2168   1.367   1_455  D
C2168      C2894   1.492       .  S
C2173      C2174   1.539       .  S
C2173      C2179   1.545       .  S
C2173      C3169   1.536       .  S
C2173      C2222   1.547       .  S
C2174      H2181   1.086       .  S
C2174      C2175   1.367       .  D
C2175      C2176   1.548       .  S
C2175      C2917   1.487       .  S
C2176      C2180   1.543       .  S
C2176      C3170   1.544       .  S
C2176      H2182   1.111       .  S
C2177      C3165   1.536   1_545  S
C2177      H2183   1.086       .  S
C2177      C2178   1.366       .  D
C2178      C3168   1.544   1_545  S
C2178      C2958   1.494       .  S
C2179      H2184   1.083       .  S
C2179      C2180   1.366       .  D
C2180      C2254   1.495       .  S
C2185      C2186   1.534       .  S
C2185      C2189   1.549       .  S
C2185      C2629   1.552       .  S
C2186      H2193   1.086       .  S
C2187      C2188   1.546   1_455  S
C2187      C2574   1.495   1_455  S
C2188      C2192   1.545       .  S
C2188      C2190   1.548   1_655  S
C2188      H2194   1.111       .  S
C2189      H2195   1.082       .  S
C2190      C2542   1.499   1_455  S
C2191      H2196   1.086       .  S
C2191      C2192   1.367   1_455  D
C2192      C2606   1.490       .  S
C2197      C3190   1.534       .  S
C2197      C2203   1.546       .  S
C2197      C2201   1.541       .  S
C2197      C2510   1.553       .  S
C2198      C3189   1.534   1_545  S
C2198      H2205   1.086       .  S
C2198      C2199   1.369       .  D
C2199      C3192   1.550   1_545  S
C2199      C2661   1.507       .  S
C2200      C3191   1.550       .  S
C2200      C2204   1.549       .  S
C2200      C2202   1.548       .  S
C2200      H2206   1.109       .  S
C2201      H2207   1.086       .  S
C2201      C2202   1.368       .  D
C2202      C2702   1.498       .  S
C2203      H2208   1.083       .  S
C2203      C2204   1.366       .  D
C2204      C2478   1.492       .  S
C2209      C3202   1.402       .  A
C2209      C2214   1.407       .  A
C2209      H2219   1.084       .  S
C2210      C2215   1.488       .  S
C2210      C3201   1.402       .  A
C2210      C2211   1.412       .  A
C2211      C2212   1.406       .  A
C2211      C2216   1.506       .  S
C2212      C2213   1.405       .  A
C2212      H2217   1.084       .  S
C2213      C3206   1.417       .  A
C2214      C3205   1.417   1_545  A
C2214      C2218   1.504       .  S
C2215      C2220   1.407       .  A
C2215      C3216   1.399       .  A
C2216      H2232   1.110       .  S
C2216      H2233   1.110       .  S
C2216      H2234   1.111       .  S
C2218      H2229   1.109       .  S
C2218      H2230   1.110       .  S
C2218      H2231   1.107       .  S
C2220      C2221   1.405       .  A
C2220      C2225   1.508       .  S
C2221      C2222   1.416       .  A
C2221      H2226   1.079       .  S
C2222      C3215   1.428       .  A
C2223      C3214   1.428   1_565  A
C2223      C2224   1.408       .  A
C2223      C2227   1.509       .  S
C2224      C3207   1.399   1_565  A
C2224      H2228   1.085       .  S
C2225      H2235   1.111       .  S
C2225      H2236   1.110       .  S
C2225      H2237   1.109       .  S
C2227      H2238   1.111   1_565  S
C2227      H2239   1.104       .  S
C2227      H2240   1.110       .  S
C2241      C3234   1.403   1_545  A
C2241      C2246   1.410       .  A
C2241      H2251   1.084       .  S
C2242      C2247   1.488       .  S
C2242      C3233   1.403       .  A
C2242      C2243   1.410       .  A
C2243      C2244   1.404       .  A
C2243      C2248   1.506       .  S
C2244      C2245   1.406       .  A
C2244      H2249   1.084       .  S
C2245      C3238   1.419       .  A
C2246      C3237   1.419   1_545  A
C2246      C2250   1.506       .  S
C2247      C2252   1.412       .  A
C2247      C3248   1.399       .  A
C2248      H2264   1.110       .  S
C2248      H2265   1.110       .  S
C2248      H2266   1.110       .  S
C2250      H2261   1.109       .  S
C2250      H2262   1.111       .  S
C2250      H2263   1.109       .  S
C2252      C2253   1.410       .  A
C2252      C2257   1.505       .  S
C2253      C2254   1.407       .  A
C2253      H2258   1.084       .  S
C2254      C3247   1.422       .  A
C2255      C3246   1.422       .  A
C2255      C2256   1.402       .  A
C2255      C2259   1.509       .  S
C2256      C3239   1.399   1_545  A
C2256      H2260   1.085       .  S
C2257      H2267   1.111       .  S
C2257      H2268   1.110       .  S
C2257      H2269   1.110       .  S
C2259      H2270   1.110       .  S
C2259      H2271   1.107       .  S
C2259      H2272   1.111       .  S
C2273      C2278   1.407       .  A
C2273      H2283   1.084       .  S
C2274      C2279   1.489       .  S
C2274      C2275   1.415   1_655  A
C2275      C2276   1.408       .  A
C2275      C2280   1.507       .  S
C2276      C2277   1.404   1_455  A
C2276      H2281   1.084       .  S
C2278      C2282   1.509       .  S
C2279      C2284   1.414       .  A
C2280      H2297   1.111       .  S
C2280      H2298   1.111       .  S
C2282      H2294   1.111       .  S
C2282      H2295   1.109       .  S
C2284      C2285   1.410       .  A
C2284      C2289   1.505       .  S
C2285      C2286   1.405       .  A
C2285      H2290   1.084       .  S
C2287      C2288   1.401       .  A
C2287      C2291   1.508       .  S
C2288      H2292   1.085       .  S
C2289      H2299   1.111       .  S
C2289      H2300   1.110       .  S
C2289      H2301   1.110       .  S
C2291      H2302   1.111       .  S
C2291      H2303   1.107       .  S
C2291      H2304   1.110       .  S
C2305      C2310   1.402       .  A
C2305      H2315   1.085       .  S
C2306      C2311   1.485       .  S
C2306      C2307   1.412       .  A
C2307      C2308   1.409       .  A
C2307      C2312   1.507       .  S
C2308      C2309   1.405       .  A
C2308      H2313   1.082       .  S
C2310      C2314   1.508       .  S
C2311      C2320   1.402       .  A
C2312      H2328   1.111       .  S
C2312      H2329   1.109       .  S
C2312      H2330   1.111       .  S
C2314      H2325   1.109       .  S
C2314      H2326   1.110       .  S
C2314      H2327   1.108       .  S
C2316      C2317   1.403       .  A
C2316      C2321   1.507       .  S
C2317      H2322   1.084       .  S
C2318      C2319   1.417       .  A
C2319      C2320   1.408       .  A
C2319      C2323   1.505       .  S
C2320      H2324   1.084       .  S
C2321      H2331   1.111       .  S
C2321      H2332   1.110       .  S
C2321      H2333   1.108       .  S
C2323      H2334   1.111       .  S
C2323      H2335   1.106   1_655  S
C2323      H2336   1.106       .  S
C2337      C2338   1.400       .  A
C2337      C2342   1.401       .  A
C2337      H2347   1.085       .  S
C2338      C2343   1.472       .  S
C2338      C2339   1.409   1_556  A
C2339      C2340   1.399       .  A
C2339      C2344   1.507       .  S
C2340      C2341   1.402   1_554  A
C2340      H2345   1.084       .  S
C2341      C2342   1.415       .  A
C2342      C2346   1.507       .  S
C2343      C2348   1.406   1_556  A
C2343      C2352   1.397       .  A
C2344      H2360   1.110       .  S
C2344      H2361   1.110       .  S
C2344      H2362   1.111       .  S
C2346      H2357   1.110       .  S
C2346      H2358   1.111       .  S
C2346      H2359   1.108       .  S
C2348      C2349   1.400       .  A
C2348      C2353   1.506       .  S
C2349      C2350   1.409   1_554  A
C2349      H2354   1.084       .  S
C2350      C2351   1.422       .  A
C2351      C2352   1.400       .  A
C2351      C2355   1.508       .  S
C2352      H2356   1.084       .  S
C2353      H2363   1.111       .  S
C2353      H2364   1.110   1_554  S
C2353      H2365   1.110       .  S
C2355      H2366   1.111       .  S
C2355      H2367   1.107       .  S
C2355      H2368   1.110       .  S
C2369      C2370   1.397       .  A
C2369      C2374   1.400       .  A
C2369      H2379   1.084       .  S
C2370      C2375   1.468       .  S
C2370      C2371   1.407   1_556  A
C2371      C2372   1.397       .  A
C2371      C2376   1.507       .  S
C2372      C2373   1.406   1_554  A
C2372      H2377   1.084       .  S
C2373      C2374   1.420       .  A
C2374      C2378   1.509       .  S
C2375      C2380   1.408       .  A
C2375      C2384   1.399   1_556  A
C2376      H2392   1.110       .  S
C2376      H2393   1.110       .  S
C2376      H2394   1.110       .  S
C2378      H2389   1.108       .  S
C2378      H2390   1.111       .  S
C2378      H2391   1.109       .  S
C2380      C2381   1.398       .  A
C2380      C2385   1.506       .  S
C2381      C2382   1.402       .  A
C2381      H2386   1.084       .  S
C2382      C2383   1.415   1_556  A
C2383      C2384   1.398       .  A
C2383      C2387   1.508       .  S
C2384      H2388   1.085       .  S
C2385      H2395   1.111       .  S
C2385      H2396   1.110       .  S
C2385      H2397   1.110       .  S
C2387      H2398   1.111       .  S
C2387      H2399   1.107       .  S
C2387      H2400   1.110       .  S
C2401      C2402   1.397       .  A
C2401      C2406   1.400       .  A
C2401      H2411   1.084       .  S
C2402      C2407   1.469   1_554  S
C2402      C2403   1.407   1_554  A
C2403      C2404   1.399       .  A
C2403      C2408   1.507       .  S
C2404      C2405   1.407   1_556  A
C2404      H2409   1.084       .  S
C2405      C2406   1.420       .  A
C2406      C2410   1.510       .  S
C2407      C2412   1.410       .  A
C2407      C2416   1.399   1_556  A
C2408      H2424   1.110       .  S
C2408      H2425   1.109       .  S
C2408      H2426   1.111       .  S
C2410      H2421   1.109       .  S
C2410      H2422   1.111       .  S
C2410      H2423   1.111       .  S
C2412      C2413   1.400       .  A
C2412      C2417   1.507       .  S
C2413      C2414   1.401       .  A
C2413      H2418   1.084       .  S
C2414      C2415   1.414   1_556  A
C2415      C2416   1.397       .  A
C2415      C2419   1.508       .  S
C2416      H2420   1.085       .  S
C2417      H2427   1.111       .  S
C2417      H2428   1.110       .  S
C2417      H2429   1.110       .  S
C2419      H2430   1.110       .  S
C2419      H2431   1.108       .  S
C2419      H2432   1.110       .  S
C2433      C2434   1.400   1_556  A
C2433      C2438   1.403       .  A
C2433      H2443   1.084       .  S
C2434      C2439   1.474       .  S
C2434      C2435   1.408       .  A
C2435      C2436   1.399       .  A
C2435      C2440   1.507       .  S
C2436      C2437   1.405       .  A
C2436      H2441   1.084       .  S
C2437      C2438   1.419   1_554  A
C2438      C2442   1.509       .  S
C2439      C2444   1.410   1_554  A
C2439      C2448   1.400       .  A
C2440      H2456   1.110       .  S
C2440      H2457   1.110       .  S
C2440      H2458   1.111       .  S
C2442      H2453   1.111       .  S
C2442      H2454   1.109       .  S
C2442      H2455   1.111       .  S
C2444      C2445   1.401       .  A
C2444      C2449   1.506       .  S
C2445      C2446   1.403   1_556  A
C2445      H2450   1.084       .  S
C2446      C2447   1.415       .  A
C2447      C2448   1.400       .  A
C2447      C2451   1.507       .  S
C2448      H2452   1.085       .  S
C2449      H2459   1.111       .  S
C2449      H2460   1.110       .  S
C2449      H2461   1.110       .  S
C2451      H2462   1.110       .  S
C2451      H2463   1.108       .  S
C2451      H2464   1.110       .  S
C2465      C3458   1.397   1_545  A
C2465      C2470   1.402       .  A
C2465      H2475   1.084       .  S
C2466      C2471   1.485       .  S
C2466      C3457   1.398       .  A
C2466      C2467   1.410       .  A
C2467      C2468   1.410       .  A
C2467      C2472   1.505       .  S
C2468      C3461   1.410       .  A
C2468      H2473   1.083       .  S
C2469      C3460   1.411   1_545  A
C2469      C2470   1.423       .  A
C2470      C2474   1.511       .  S
C2471      C2476   1.411       .  A
C2471      C3472   1.401       .  A
C2472      H2488   1.111       .  S
C2472      H2489   1.110       .  S
C2472      H2490   1.111       .  S
C2474      H2485   1.109       .  S
C2474      H2486   1.111       .  S
C2474      H2487   1.111       .  S
C2476      C2477   1.405       .  A
C2476      C2481   1.507       .  S
C2477      C2478   1.405       .  A
C2477      H2482   1.083       .  S
C2478      C3471   1.416       .  A
C2479      C3470   1.416       .  A
C2479      C2480   1.406       .  A
C2479      C2483   1.502       .  S
C2480      C3463   1.401   1_545  A
C2480      H2484   1.085       .  S
C2481      H2491   1.111       .  S
C2481      H2492   1.110       .  S
C2481      H2493   1.110       .  S
C2483      H2494   1.110       .  S
C2483      H2495   1.106       .  S
C2483      H2496   1.110       .  S
C2497      C3490   1.403       .  A
C2497      C2502   1.406       .  A
C2497      H2507   1.084       .  S
C2498      C2503   1.493       .  S
C2498      C3489   1.403       .  A
C2498      C2499   1.413   1_565  A
C2499      C2500   1.408       .  A
C2499      C2504   1.505       .  S
C2500      C2501   1.403   1_545  A
C2500      H2505   1.082       .  S
C2501      C3494   1.418       .  A
C2502      C3493   1.418       .  A
C2502      C2506   1.509       .  S
C2503      C2508   1.408   1_565  A
C2503      C3504   1.397       .  A
C2504      H2520   1.110       .  S
C2504      H2521   1.110       .  S
C2504      H2522   1.111       .  S
C2506      H2517   1.110       .  S
C2506      H2518   1.111       .  S
C2506      H2519   1.108       .  S
C2508      C2509   1.408       .  A
C2508      C2513   1.507       .  S
C2509      C3502   1.416   1_545  A
C2509      H2514   1.077       .  S
C2510      C3501   1.416       .  A
C2510      C2511   1.433       .  A
C2511      C2512   1.409       .  A
C2511      C2515   1.510       .  S
C2512      C3495   1.397       .  A
C2512      H2516   1.085       .  S
C2513      H2523   1.111       .  S
C2513      H2524   1.110       .  S
C2513      H2525   1.111       .  S
C2515      H2526   1.110       .  S
C2515      H2527   1.099       .  S
C2515      H2528   1.111       .  S
C2529      C2534   1.409       .  A
C2529      H2539   1.084       .  S
C2530      C2535   1.492       .  S
C2530      C2531   1.412       .  A
C2531      C2532   1.407       .  A
C2531      C2536   1.506       .  S
C2532      C2533   1.406       .  A
C2532      H2537   1.084       .  S
C2534      C2538   1.506       .  S
C2535      C2544   1.401       .  A
C2536      H2552   1.109       .  S
C2536      H2553   1.110       .  S
C2536      H2554   1.111       .  S
C2538      H2549   1.111       .  S
C2538      H2550   1.109       .  S
C2538      H2551   1.111       .  S
C2540      C2541   1.407       .  A
C2540      C2545   1.507       .  S
C2541      H2546   1.084       .  S
C2542      C2543   1.421       .  A
C2543      C2544   1.407       .  A
C2543      C2547   1.503       .  S
C2544      H2548   1.085       .  S
C2545      H2555   1.111       .  S
C2545      H2556   1.110       .  S
C2545      H2557   1.110       .  S
C2547      H2558   1.111       .  S
C2547      H2559   1.096       .  S
C2547      H2560   1.110       .  S
C2561      C2566   1.412       .  A
C2561      H2571   1.084       .  S
C2562      C2567   1.493       .  S
C2562      C2563   1.414   1_655  A
C2563      C2564   1.405       .  A
C2563      C2568   1.508       .  S
C2564      C2565   1.402   1_455  A
C2564      H2569   1.082       .  S
C2566      C2570   1.506       .  S
C2567      C2576   1.400       .  A
C2568      H2584   1.110       .  S
C2568      H2585   1.108       .  S
C2568      H2586   1.111       .  S
C2570      H2581   1.109       .  S
C2570      H2582   1.111       .  S
C2570      H2583   1.110       .  S
C2572      C2573   1.412       .  A
C2572      C2577   1.507       .  S
C2573      H2578   1.084       .  S
C2574      C2575   1.418       .  A
C2575      C2576   1.405       .  A
C2575      C2579   1.506       .  S
C2576      H2580   1.084       .  S
C2577      H2587   1.111       .  S
C2577      H2588   1.110       .  S
C2577      H2589   1.108       .  S
C2579      H2590   1.111       .  S
C2579      H2591   1.110       .  S
C2579      H2592   1.106   1_655  S
C2593      C2594   1.403       .  A
C2593      C2598   1.409       .  A
C2593      H2603   1.084       .  S
C2594      C2599   1.483       .  S
C2594      C2595   1.409       .  A
C2595      C2596   1.400       .  A
C2595      C2600   1.508       .  S
C2596      C2597   1.407       .  A
C2596      H2601   1.084       .  S
C2597      C2598   1.417       .  A
C2598      C2602   1.507       .  S
C2599      C2604   1.411       .  A
C2599      C2608   1.400       .  A
C2600      H2616   1.110       .  S
C2600      H2617   1.109       .  S
C2600      H2618   1.111       .  S
C2602      H2613   1.110       .  S
C2602      H2614   1.111       .  S
C2602      H2615   1.111       .  S
C2604      C2605   1.407       .  A
C2604      C2609   1.506       .  S
C2605      C2606   1.405       .  A
C2605      H2610   1.084       .  S
C2606      C2607   1.420       .  A
C2607      C2608   1.403       .  A
C2607      C2611   1.509       .  S
C2608      H2612   1.085       .  S
C2609      H2619   1.110       .  S
C2609      H2620   1.110       .  S
C2609      H2621   1.109       .  S
C2611      H2622   1.111       .  S
C2611      H2623   1.107       .  S
C2611      H2624   1.110       .  S
C2625      C2626   1.398       .  A
C2625      C2630   1.408       .  A
C2625      H2635   1.085       .  S
C2626      C2631   1.492       .  S
C2626      C2627   1.407       .  A
C2627      C2628   1.408       .  A
C2627      C2632   1.508       .  S
C2628      C2629   1.417       .  A
C2628      H2633   1.076       .  S
C2629      C2630   1.432       .  A
C2630      C2634   1.510       .  S
C2631      C2636   1.412       .  A
C2631      C2640   1.403       .  A
C2632      H2648   1.110       .  S
C2632      H2649   1.108       .  S
C2632      H2650   1.111       .  S
C2634      H2645   1.110       .  S
C2634      H2646   1.111       .  S
C2634      H2647   1.100       .  S
C2636      C2637   1.408       .  A
C2636      C2641   1.507       .  S
C2637      C2638   1.407       .  A
C2637      H2642   1.084       .  S
C2638      C2639   1.419       .  A
C2639      C2640   1.409       .  A
C2639      C2643   1.504       .  S
C2640      H2644   1.084       .  S
C2641      H2651   1.111       .  S
C2641      H2652   1.110       .  S
C2641      H2653   1.109       .  S
C2643      H2654   1.110       .  S
C2643      H2655   1.106       .  S
C2643      H2656   1.110       .  S
C2657      C2658   1.398       .  A
C2657      C2662   1.403       .  A
C2657      H2667   1.085       .  S
C2658      C2663   1.487       .  S
C2658      C2659   1.410       .  A
C2659      C2660   1.410       .  A
C2659      C2664   1.506       .  S
C2660      C2661   1.408       .  A
C2660      H2665   1.078       .  S
C2661      C2662   1.422       .  A
C2662      C2666   1.506       .  S
C2663      C2668   1.406       .  A
C2663      C2672   1.403       .  A
C2664      H2680   1.110       .  S
C2664      H2681   1.110       .  S
C2664      H2682   1.111       .  S
C2666      H2677   1.111       .  S
C2666      H2678   1.110       .  S
C2666      H2679   1.105       .  S
C2668      C2669   1.401       .  A
C2668      C2673   1.508       .  S
C2669      C2670   1.415       .  A
C2669      H2674   1.083       .  S
C2670      C2671   1.423       .  A
C2671      C2672   1.412       .  A
C2671      C2675   1.507       .  S
C2672      H2676   1.084       .  S
C2673      H2683   1.111       .  S
C2673      H2684   1.110       .  S
C2673      H2685   1.110       .  S
C2675      H2686   1.111       .  S
C2675      H2687   1.110       .  S
C2675      H2688   1.109       .  S
C2689      C2690   1.403       .  A
C2689      C2694   1.412       .  A
C2689      H2699   1.084       .  S
C2690      C2695   1.490       .  S
C2690      C2691   1.407       .  A
C2691      C2692   1.404       .  A
C2691      C2696   1.507       .  S
C2692      C2693   1.412       .  A
C2692      H2697   1.083       .  S
C2693      C2694   1.424       .  A
C2694      C2698   1.506       .  S
C2695      C2700   1.412       .  A
C2695      C2704   1.402       .  A
C2696      H2712   1.110       .  S
C2696      H2713   1.109       .  S
C2696      H2714   1.111       .  S
C2698      H2709   1.104       .  S
C2698      H2710   1.111       .  S
C2698      H2711   1.110       .  S
C2700      C2701   1.406       .  A
C2700      C2705   1.507       .  S
C2701      C2702   1.406       .  A
C2701      H2706   1.084       .  S
C2702      C2703   1.418       .  A
C2703      C2704   1.410       .  A
C2703      C2707   1.502       .  S
C2704      H2708   1.084       .  S
C2705      H2715   1.111       .  S
C2705      H2716   1.110       .  S
C2705      H2717   1.110       .  S
C2707      H2718   1.111       .  S
C2707      H2719   1.105       .  S
C2707      H2720   1.107       .  S
C2721      C2722   1.398       .  A
C2721      C2726   1.404       .  A
C2721      H2731   1.084       .  S
C2722      C2727   1.476       .  S
C2722      C2723   1.406       .  A
C2723      C2724   1.400       .  A
C2723      C2728   1.507       .  S
C2724      C2725   1.409       .  A
C2724      H2729   1.080       .  S
C2725      C2726   1.424       .  A
C2726      C2730   1.508       .  S
C2727      C2732   1.410       .  A
C2727      C2736   1.401       .  A
C2728      H2744   1.110       .  S
C2728      H2745   1.110       .  S
C2728      H2746   1.111       .  S
C2730      H2741   1.110       .  S
C2730      H2742   1.111       .  S
C2730      H2743   1.109       .  S
C2732      C2733   1.402       .  A
C2732      C2737   1.506       .  S
C2733      C2734   1.402       .  A
C2733      H2738   1.084       .  S
C2734      C2735   1.413       .  A
C2735      C2736   1.400       .  A
C2735      C2739   1.508       .  S
C2736      H2740   1.085       .  S
C2737      H2747   1.111       .  S
C2737      H2748   1.110       .  S
C2737      H2749   1.110       .  S
C2739      H2750   1.110       .  S
C2739      H2751   1.108       .  S
C2739      H2752   1.111       .  S
C2753      C2754   1.399       .  A
C2753      C2758   1.399       .  A
C2753      H2763   1.085       .  S
C2754      C2759   1.469       .  S
C2754      C2755   1.410       .  A
C2755      C2756   1.399       .  A
C2755      C2760   1.507       .  S
C2756      C2757   1.403       .  A
C2756      H2761   1.084       .  S
C2757      C2758   1.414       .  A
C2758      C2762   1.507       .  S
C2759      C2764   1.408       .  A
C2759      C2768   1.397       .  A
C2760      H2776   1.110       .  S
C2760      H2777   1.110       .  S
C2760      H2778   1.111       .  S
C2762      H2773   1.110       .  S
C2762      H2774   1.110       .  S
C2762      H2775   1.108       .  S
C2764      C2765   1.400       .  A
C2764      C2769   1.507       .  S
C2765      C2766   1.404       .  A
C2765      H2770   1.084       .  S
C2766      C2767   1.420       .  A
C2767      C2768   1.400       .  A
C2767      C2771   1.510       .  S
C2768      H2772   1.084       .  S
C2769      H2779   1.111       .  S
C2769      H2780   1.110       .  S
C2769      H2781   1.109       .  S
C2771      H2782   1.111       .  S
C2771      H2783   1.111       .  S
C2771      H2784   1.109       .  S
C2785      C2786   1.399       .  A
C2785      C2790   1.397       .  A
C2785      H2795   1.085       .  S
C2786      C2791   1.467       .  S
C2786      C2787   1.408       .  A
C2787      C2788   1.399       .  A
C2787      C2792   1.507       .  S
C2788      C2789   1.403       .  A
C2788      H2793   1.084       .  S
C2789      C2790   1.414       .  A
C2790      C2794   1.507       .  S
C2791      C2796   1.406       .  A
C2791      C2800   1.396       .  A
C2792      H2808   1.110       .  S
C2792      H2809   1.110       .  S
C2792      H2810   1.111       .  S
C2794      H2805   1.110       .  S
C2794      H2806   1.110       .  S
C2794      H2807   1.108       .  S
C2796      C2797   1.400       .  A
C2796      C2801   1.507       .  S
C2797      C2798   1.409       .  A
C2797      H2802   1.084       .  S
C2798      C2799   1.420       .  A
C2799      C2800   1.398       .  A
C2799      C2803   1.508       .  S
C2800      H2804   1.085       .  S
C2801      H2811   1.111       .  S
C2801      H2812   1.110       .  S
C2801      H2813   1.110       .  S
C2803      H2814   1.111       .  S
C2803      H2815   1.110       .  S
C2803      H2816   1.110       .  S
C2817      C2818   1.400       .  A
C2817      C2822   1.403       .  A
C2817      H2827   1.084       .  S
C2818      C2823   1.478       .  S
C2818      C2819   1.411       .  A
C2819      C2820   1.403       .  A
C2819      C2824   1.507       .  S
C2820      C2821   1.405       .  A
C2820      H2825   1.084       .  S
C2821      C2822   1.418       .  A
C2822      C2826   1.510       .  S
C2823      C2828   1.412       .  A
C2823      C2832   1.400       .  A
C2824      H2840   1.110       .  S
C2824      H2841   1.108       .  S
C2824      H2842   1.111       .  S
C2826      H2837   1.109       .  S
C2826      H2838   1.111       .  S
C2826      H2839   1.111       .  S
C2828      C2829   1.404       .  A
C2828      C2833   1.507       .  S
C2829      C2830   1.404       .  A
C2829      H2834   1.084       .  S
C2830      C2831   1.416       .  A
C2831      C2832   1.401       .  A
C2831      C2835   1.508       .  S
C2832      H2836   1.085       .  S
C2833      H2843   1.111       .  S
C2833      H2844   1.110       .  S
C2833      H2845   1.109       .  S
C2835      H2846   1.110       .  S
C2835      H2847   1.108       .  S
C2835      H2848   1.110       .  S
C2849      C2850   1.398       .  A
C2849      C2854   1.406       .  A
C2849      H2859   1.085       .  S
C2850      C2855   1.490       .  S
C2850      C2851   1.407       .  A
C2851      C2852   1.406       .  A
C2851      C2856   1.508       .  S
C2852      C2853   1.417       .  A
C2852      H2857   1.073       .  S
C2853      C2854   1.432       .  A
C2854      C2858   1.513       .  S
C2855      C2860   1.408       .  A
C2855      C2864   1.403       .  A
C2856      H2872   1.110       .  S
C2856      H2873   1.110       .  S
C2856      H2874   1.111       .  S
C2858      H2869   1.110       .  S
C2858      H2870   1.111       .  S
C2858      H2871   1.102       .  S
C2860      C2861   1.403       .  A
C2860      C2865   1.509       .  S
C2861      C2862   1.414       .  A
C2861      H2866   1.082       .  S
C2862      C2863   1.422       .  A
C2863      C2864   1.412       .  A
C2863      C2867   1.506       .  S
C2864      H2868   1.084       .  S
C2865      H2875   1.111       .  S
C2865      H2876   1.110       .  S
C2865      H2877   1.110       .  S
C2867      H2878   1.111       .  S
C2867      H2879   1.110       .  S
C2867      H2880   1.110       .  S
C2881      C2882   1.396       .  A
C2881      C2886   1.402       .  A
C2881      H2891   1.085       .  S
C2882      C2887   1.486       .  S
C2882      C2883   1.412       .  A
C2883      C2884   1.410       .  A
C2883      C2888   1.505       .  S
C2884      C2885   1.407       .  A
C2884      H2889   1.084       .  S
C2885      C2886   1.424       .  A
C2886      C2890   1.508       .  S
C2887      C2892   1.412       .  A
C2887      C2896   1.402       .  A
C2888      H2904   1.110       .  S
C2888      H2905   1.109       .  S
C2888      H2906   1.111       .  S
C2890      H2901   1.109       .  S
C2890      H2902   1.111       .  S
C2890      H2903   1.110       .  S
C2892      C2893   1.407       .  A
C2892      C2897   1.507       .  S
C2893      C2894   1.406       .  A
C2893      H2898   1.084       .  S
C2894      C2895   1.416       .  A
C2895      C2896   1.407       .  A
C2895      C2899   1.507       .  S
C2896      H2900   1.084       .  S
C2897      H2907   1.111       .  S
C2897      H2908   1.111       .  S
C2897      H2909   1.109       .  S
C2899      H2910   1.111       .  S
C2899      H2911   1.110       .  S
C2899      H2912   1.107       .  S
C2913      C2914   1.403       .  A
C2913      C2918   1.408       .  A
C2913      H2923   1.084       .  S
C2914      C2919   1.492       .  S
C2914      C2915   1.413       .  A
C2915      C2916   1.408       .  A
C2915      C2920   1.506       .  S
C2916      C2917   1.402       .  A
C2916      H2921   1.084       .  S
C2917      C2918   1.418       .  A
C2918      C2922   1.508       .  S
C2919      C2924   1.413       .  A
C2919      C2928   1.403       .  A
C2920      H2936   1.110       .  S
C2920      H2937   1.111       .  S
C2920      H2938   1.110       .  S
C2922      H2933   1.110       .  S
C2922      H2934   1.110       .  S
C2922      H2935   1.108       .  S
C2924      C2925   1.408       .  A
C2924      C2929   1.506       .  S
C2925      C2926   1.404       .  A
C2925      H2930   1.084       .  S
C2926      C2927   1.417       .  A
C2927      C2928   1.407       .  A
C2927      C2931   1.509       .  S
C2928      H2932   1.084       .  S
C2929      H2939   1.111       .  S
C2929      H2940   1.110       .  S
C2929      H2941   1.110       .  S
C2931      H2942   1.110       .  S
C2931      H2943   1.108       .  S
C2931      H2944   1.110       .  S
C2945      C2946   1.402       .  A
C2945      C2950   1.409       .  A
C2945      H2955   1.084       .  S
C2946      C2951   1.497       .  S
C2946      C2947   1.415       .  A
C2947      C2948   1.411       .  A
C2947      C2952   1.506       .  S
C2948      C2949   1.405       .  A
C2948      H2953   1.084       .  S
C2949      C2950   1.420       .  A
C2950      C2954   1.509       .  S
C2951      C2956   1.414       .  A
C2951      C2960   1.403       .  A
C2952      H2968   1.109       .  S
C2952      H2969   1.110       .  S
C2952      H2970   1.111       .  S
C2954      H2965   1.111       .  S
C2954      H2966   1.111       .  S
C2954      H2967   1.108       .  S
C2956      C2957   1.412       .  A
C2956      C2961   1.505       .  S
C2957      C2958   1.406       .  A
C2957      H2962   1.084       .  S
C2958      C2959   1.417       .  A
C2959      C2960   1.406       .  A
C2959      C2963   1.507       .  S
C2960      H2964   1.084       .  S
C2961      H2971   1.111       .  S
C2961      H2972   1.110       .  S
C2961      H2973   1.110       .  S
C2963      H2974   1.111       .  S
C2963      H2975   1.108       .  S
C2963      H2976   1.110       .  S
O2977      C2988   1.298       .  A
O2977     Eu3013   2.498       .  S
O2978      C2989   1.297       .  A
O2978     Eu3012   2.499       .  S
O2979      C2990   1.288       .  A
O2979     Eu2985   2.453       .  S
O2980      C2991   1.290       .  A
O2980     Eu2985   2.451       .  S
O2981      C2991   1.286       .  A
O2981     Eu3015   2.437       .  S
O2982      C2990   1.291       .  A
O2982     Eu3014   2.454       .  S
O2983      C2989   1.288       .  A
O2983     Eu2985   2.431       .  S
O2984      C2988   1.289       .  A
O2984     Eu2985   2.448       .  S
Eu2985     O2995   2.345       .  S
Eu2985     O2987   2.343       .  S
Eu2985     O2986   2.357       .  S
Eu2985     O2993   2.349       .  S
O2986     Eu3015   2.345       .  S
O2986     Eu3012   2.360       .  S
O2987     Eu3013   2.363       .  S
O2987     Eu3014   2.351       .  S
C2988      C3941   1.492       .  S
C2989      C3662   1.505       .  S
C2990      C3717   1.492       .  S
C2991      C3758   1.474       .  S
H2992      O2993   0.965       .  S
O2993     Eu3014   2.347       .  S
O2993     Eu3012   2.361       .  S
H2994      O2995   0.965       .  S
O2995     Eu3013   2.352       .  S
O2995     Eu3015   2.357       .  S
O2996      C3019   1.295       .  A
O2996     Eu3012   2.485       .  S
O2997      C3020   1.295       .  A
O2997     Eu3013   2.480       .  S
O2998      C3021   1.290       .  A
O2998     Eu3014   2.442       .  S
O2999      C3022   1.291       .  A
O2999     Eu3015   2.458       .  S
O3000      C3023   1.289       .  A
O3000     Eu3015   2.436       .  S
O3001      C3024   1.285       .  A
O3001     Eu3014   2.429       .  S
O3002      C3025   1.289       .  A
O3002     Eu3016   2.449       .  S
O3003      C3026   1.287       .  A
O3003     Eu3016   2.435       .  S
O3004      C3025   1.289       .  A
O3004     Eu3014   2.455       .  S
O3005      C3026   1.288       .  A
O3005     Eu3015   2.447       .  S
O3006      C3021   1.294       .  A
O3006     Eu3012   2.475       .  S
O3007      C3024   1.299       .  A
O3007     Eu3013   2.504       .  S
O3008      C3023   1.299       .  A
O3008     Eu3013   2.508       .  S
O3009      C3022   1.297       .  A
O3009     Eu3012   2.494       .  S
O3010      C3019   1.293       .  A
O3010     Eu3016   2.459       .  S
O3011      C3020   1.292       .  A
O3011     Eu3016   2.463       .  S
Eu3012     O3030   2.366       .  S
Eu3012     O3018   2.369       .  S
Eu3013     O3017   2.366       .  S
Eu3013     O3028   2.364       .  S
Eu3014     O3028   2.348       .  S
Eu3014     O3018   2.340       .  S
Eu3015     O3017   2.348       .  S
Eu3015     O3030   2.349       .  S
Eu3016     O3017   2.351       .  S
Eu3016     O3028   2.346       .  S
Eu3016     O3030   2.363       .  S
Eu3016     O3018   2.346       .  S
C3019      C3685   1.505       .  S
C3020      C3918   1.481       .  S
C3021      C3589   1.486       .  S
C3022      C3630   1.491       .  S
C3023      C3854   1.507       .  S
C3024      C3877   1.493       .  S
C3025      C3813   1.478       .  S
C3026      C3790   1.481       .  S
H3027      O3028   0.967       .  S
H3029      O3030   0.965       .  S
N3031      C3036   1.352       .  A
N3031      H3063   1.039       .  S
N3032      C3040   1.349       .  A
N3033      C3038   1.351       .  A
N3033      H3064   1.039       .  S
N3034      C3042   1.349       .  A
C3035      C3043   1.386       .  A
C3035      C3051   1.413       .  A
C3036      C3052   1.412       .  A
C3036      C3044   1.387       .  A
C3037      C3045   1.388       .  A
C3037      C3054   1.411       .  A
C3038      C3053   1.410       .  A
C3038      C3046   1.386       .  A
C3039      C3051   1.412       .  A
C3039      C3047   1.386       .  A
C3040      C3054   1.411       .  A
C3040      C3048   1.387       .  A
C3041      C3049   1.387       .  A
C3041      C3052   1.408       .  A
C3042      C3050   1.385       .  A
C3042      C3053   1.407       .  A
C3043      H3055   1.082       .  S
C3044      H3056   1.082       .  S
C3045      H3057   1.082       .  S
C3046      H3058   1.083       .  S
C3047      H3059   1.082       .  S
C3048      H3060   1.082       .  S
C3049      H3061   1.082       .  S
C3050      H3062   1.082       .  S
C3051      C3822   1.488       .  S
C3052      C3726   1.479       .  S
C3053      C3749   1.481       .  S
C3054      C3781   1.478       .  S
O3065      C3076   1.296       .  A
O3065     Eu3101   2.494       .  S
O3066      C3077   1.296       .  A
O3066     Eu3100   2.487       .  S
O3067      C3078   1.288       .  A
O3068      C3079   1.287       .  A
O3068     Eu3073   2.443       .  S
O3069      C3079   1.288   1_554  A
O3069     Eu3103   2.438       .  S
O3070      C3078   1.288       .  A
O3070     Eu3102   2.439       .  S
O3071      C3077   1.290       .  A
O3071     Eu3073   2.454   1_554  S
O3072      C3076   1.290       .  A
O3072     Eu3073   2.455       .  S
Eu3073     O3083   2.351       .  S
Eu3073     O3074   2.345   1_556  S
O3074     Eu3103   2.344       .  S
O3074     Eu3100   2.360       .  S
O3075     Eu3102   2.346       .  S
C3076      C3557   1.483       .  S
C3077      C3269   1.487       .  S
C3078      C3342   1.485       .  S
C3079      C3365   1.477       .  S
H3080      O3081   0.965       .  S
O3081     Eu3102   2.359   1_554  S
H3082      O3083   0.965       .  S
O3083     Eu3101   2.363       .  S
O3083     Eu3103   2.347   1_556  S
O3084      C3107   1.294       .  A
O3085      C3108   1.297       .  A
O3086      C3109   1.290       .  A
O3086     Eu3102   2.453   1_554  S
O3087      C3110   1.293       .  A
O3087     Eu3103   2.464       .  S
O3088     Eu3103   2.456   1_556  S
O3089     Eu3102   2.456       .  S
O3090      C3113   1.287       .  A
O3091      C3114   1.290       .  A
O3091     Eu3104   2.451       .  S
O3092      C3113   1.291   1_556  A
O3093      C3114   1.286       .  A
O3094      C3109   1.296       .  A
O3095      C3112   1.295       .  A
O3096      C3111   1.295       .  A
O3097      C3110   1.294       .  A
O3097     Eu3100   2.479       .  S
O3098      C3107   1.290       .  A
O3098     Eu3104   2.456       .  S
O3099      C3108   1.289       .  A
O3099     Eu3104   2.447   1_556  S
Eu3104     O3105   2.347   1_554  S
Eu3104     O3118   2.349       .  S
C3107      C3301   1.480       .  S
C3108      C3525   1.487       .  S
C3109      C3205   1.482       .  S
C3110      C3237   1.491       .  S
C3111      C3461   1.494       .  S
C3112      C3493   1.483       .  S
C3113      C3429   1.477       .  S
C3114      C3397   1.479       .  S
H3115      O3116   0.966       .  S
H3117      O3118   0.965       .  S
N3119      C3124   1.350       .  A
N3119      C3123   1.349       .  A
N3119      H3151   1.038   1_556  S
N3120      C3127   1.349   1_556  A
N3120      C3128   1.349   1_556  A
N3121      C3126   1.352       .  A
N3121      C3125   1.352       .  A
N3121      H3152   1.038   1_556  S
N3122      C3129   1.349   1_556  A
N3122      C3130   1.349   1_556  A
C3123      C3131   1.388       .  A
C3123      C3139   1.409       .  A
C3124      C3140   1.408       .  A
C3124      C3132   1.387       .  A
C3125      C3133   1.387       .  A
C3125      C3142   1.413   1_556  A
C3126      C3141   1.414       .  A
C3126      C3134   1.387       .  A
C3127      C3139   1.409   1_554  A
C3127      C3135   1.386       .  A
C3128      C3142   1.410       .  A
C3128      C3136   1.387       .  A
C3129      C3137   1.386       .  A
C3129      C3140   1.409   1_554  A
C3130      C3138   1.386       .  A
C3130      C3141   1.409   1_554  A
C3131      C3132   1.374       .  A
C3131      H3143   1.083       .  S
C3132      H3144   1.082       .  S
C3133      C3134   1.375       .  A
C3133      H3145   1.082       .  S
C3134      H3146   1.082       .  S
C3135      C3136   1.373       .  A
C3135      H3147   1.082       .  S
C3136      H3148   1.082       .  S
C3137      C3138   1.372       .  A
C3137      H3149   1.082       .  S
C3138      H3150   1.082       .  S
C3139      C3406   1.476       .  S
C3140      C3374   1.478       .  S
C3141      C3333   1.482       .  S
C3142      C3438   1.483       .  S
C3153      C3154   1.535       .  S
C3153      C3157   1.546       .  S
C3153      C3845   1.548       .  S
C3154      H3161   1.087       .  S
C3155      C3156   1.547   1_455  S
C3155      C3310   1.495   1_455  S
C3156      C3160   1.542       .  S
C3156      C3158   1.541   1_655  S
C3156      H3162   1.106       .  S
C3157      H3163   1.080       .  S
C3158      C3278   1.486   1_455  S
C3159      H3164   1.086       .  S
C3159      C3160   1.367   1_455  D
C3160      C3886   1.492       .  S
C3165      C3166   1.539       .  S
C3165      C3171   1.545   1_565  S
C3165      C3214   1.548   1_565  S
C3166      H3173   1.086       .  S
C3166      C3167   1.367       .  D
C3167      C3168   1.548       .  S
C3167      C3909   1.487       .  S
C3168      C3172   1.543   1_565  S
C3168      H3174   1.111       .  S
C3169      H3175   1.086       .  S
C3169      C3170   1.366       .  D
C3170      C3950   1.494       .  S
C3171      H3176   1.083   1_545  S
C3171      C3172   1.366       .  D
C3172      C3246   1.495       .  S
C3177      C3178   1.534       .  S
C3177      C3181   1.548       .  S
C3177      C3621   1.552       .  S
C3178      H3185   1.086       .  S
C3179      C3180   1.546   1_455  S
C3179      C3566   1.495   1_455  S
C3180      C3184   1.545       .  S
C3180      C3182   1.548   1_655  S
C3180      H3186   1.111       .  S
C3181      H3187   1.082       .  S
C3182      C3534   1.499   1_455  S
C3183      H3188   1.086       .  S
C3183      C3184   1.367   1_455  D
C3184      C3598   1.490       .  S
C3189      C3195   1.546   1_565  S
C3189      C3193   1.541       .  S
C3189      C3502   1.553       .  S
C3190      H3197   1.086       .  S
C3190      C3191   1.369       .  D
C3191      C3653   1.507       .  S
C3192      C3196   1.549   1_565  S
C3192      C3194   1.548       .  S
C3192      H3198   1.109   1_565  S
C3193      H3199   1.086       .  S
C3193      C3194   1.368       .  D
C3194      C3694   1.499       .  S
C3195      H3200   1.083       .  S
C3195      C3196   1.366       .  D
C3196      C3470   1.491       .  S
C3201      C3206   1.407       .  A
C3201      H3211   1.084       .  S
C3202      C3207   1.488       .  S
C3202      C3203   1.412   1_545  A
C3203      C3204   1.406       .  A
C3203      C3208   1.506       .  S
C3204      C3205   1.405       .  A
C3204      H3209   1.084       .  S
C3206      C3210   1.504       .  S
C3207      C3212   1.407       .  A
C3208      H3224   1.110       .  S
C3208      H3225   1.110       .  S
C3208      H3226   1.111       .  S
C3210      H3221   1.109       .  S
C3210      H3222   1.110       .  S
C3210      H3223   1.107       .  S
C3212      C3213   1.405       .  A
C3212      C3217   1.508       .  S
C3213      C3214   1.416       .  A
C3213      H3218   1.079       .  S
C3215      C3216   1.408       .  A
C3215      C3219   1.509       .  S
C3216      H3220   1.085       .  S
C3217      H3227   1.111       .  S
C3217      H3228   1.110       .  S
C3217      H3229   1.109       .  S
C3219      H3230   1.111       .  S
C3219      H3231   1.104       .  S
C3219      H3232   1.110       .  S
C3233      C3238   1.410       .  A
C3233      H3243   1.084       .  S
C3234      C3239   1.488       .  S
C3234      C3235   1.410       .  A
C3235      C3236   1.404       .  A
C3235      C3240   1.506       .  S
C3236      C3237   1.406       .  A
C3236      H3241   1.084       .  S
C3238      C3242   1.506       .  S
C3239      C3244   1.412       .  A
C3240      H3256   1.110       .  S
C3240      H3257   1.110       .  S
C3240      H3258   1.110       .  S
C3242      H3253   1.109       .  S
C3242      H3254   1.111       .  S
C3242      H3255   1.109       .  S
C3244      C3245   1.410       .  A
C3244      C3249   1.505       .  S
C3245      C3246   1.407   1_565  A
C3245      H3250   1.084       .  S
C3247      C3248   1.402       .  A
C3247      C3251   1.509       .  S
C3248      H3252   1.085       .  S
C3249      H3259   1.111       .  S
C3249      H3260   1.110       .  S
C3249      H3261   1.110       .  S
C3251      H3262   1.110       .  S
C3251      H3263   1.107       .  S
C3251      H3264   1.111       .  S
C3265      C3270   1.407       .  A
C3265      H3275   1.084       .  S
C3266      C3271   1.489       .  S
C3266      C3267   1.415   1_655  A
C3267      C3268   1.408       .  A
C3267      C3272   1.507       .  S
C3268      C3269   1.404   1_455  A
C3268      H3273   1.084       .  S
C3270      C3274   1.509       .  S
C3271      C3276   1.414       .  A
C3272      H3289   1.111       .  S
C3272      H3290   1.111       .  S
C3274      H3286   1.111       .  S
C3274      H3287   1.109       .  S
C3276      C3277   1.410       .  A
C3276      C3281   1.505       .  S
C3277      C3278   1.405       .  A
C3277      H3282   1.084       .  S
C3279      C3280   1.401       .  A
C3279      C3283   1.508       .  S
C3280      H3284   1.085       .  S
C3281      H3291   1.111       .  S
C3281      H3292   1.110       .  S
C3281      H3293   1.110       .  S
C3283      H3294   1.111       .  S
C3283      H3295   1.107       .  S
C3283      H3296   1.110       .  S
C3297      C3302   1.402       .  A
C3297      H3307   1.085       .  S
C3298      C3303   1.485       .  S
C3298      C3299   1.412       .  A
C3299      C3300   1.409       .  A
C3299      C3304   1.507       .  S
C3300      C3301   1.405       .  A
C3300      H3305   1.082       .  S
C3302      C3306   1.508       .  S
C3303      C3312   1.402       .  A
C3304      H3320   1.111       .  S
C3304      H3321   1.109       .  S
C3304      H3322   1.111       .  S
C3306      H3317   1.109       .  S
C3306      H3318   1.110       .  S
C3306      H3319   1.108       .  S
C3308      C3309   1.403       .  A
C3308      C3313   1.507       .  S
C3309      H3314   1.084       .  S
C3310      C3311   1.417       .  A
C3311      C3312   1.408       .  A
C3311      C3315   1.505       .  S
C3312      H3316   1.084       .  S
C3313      H3323   1.111       .  S
C3313      H3324   1.110       .  S
C3313      H3325   1.108       .  S
C3315      H3326   1.111       .  S
C3315      H3327   1.106   1_655  S
C3315      H3328   1.106       .  S
C3329      C3330   1.400       .  A
C3329      C3334   1.401       .  A
C3329      H3339   1.085       .  S
C3330      C3335   1.472       .  S
C3330      C3331   1.409   1_556  A
C3331      C3332   1.399       .  A
C3331      C3336   1.507       .  S
C3332      C3333   1.402   1_554  A
C3332      H3337   1.084       .  S
C3333      C3334   1.415       .  A
C3334      C3338   1.507       .  S
C3335      C3340   1.406   1_556  A
C3335      C3344   1.397       .  A
C3336      H3352   1.110       .  S
C3336      H3353   1.110       .  S
C3336      H3354   1.111       .  S
C3338      H3349   1.110       .  S
C3338      H3350   1.111       .  S
C3338      H3351   1.108       .  S
C3340      C3341   1.400       .  A
C3340      C3345   1.506       .  S
C3341      C3342   1.409   1_554  A
C3341      H3346   1.084       .  S
C3342      C3343   1.422       .  A
C3343      C3344   1.400       .  A
C3343      C3347   1.508       .  S
C3344      H3348   1.084       .  S
C3345      H3355   1.111       .  S
C3345      H3356   1.110   1_554  S
C3345      H3357   1.110       .  S
C3347      H3358   1.111       .  S
C3347      H3359   1.107       .  S
C3347      H3360   1.110       .  S
C3361      C3362   1.397       .  A
C3361      C3366   1.400       .  A
C3361      H3371   1.084       .  S
C3362      C3367   1.468       .  S
C3362      C3363   1.407   1_556  A
C3363      C3364   1.397       .  A
C3363      C3368   1.507       .  S
C3364      C3365   1.406   1_554  A
C3364      H3369   1.084       .  S
C3365      C3366   1.420       .  A
C3366      C3370   1.509       .  S
C3367      C3372   1.408       .  A
C3367      C3376   1.399   1_556  A
C3368      H3384   1.110       .  S
C3368      H3385   1.110       .  S
C3368      H3386   1.110       .  S
C3370      H3381   1.108       .  S
C3370      H3382   1.111       .  S
C3370      H3383   1.109       .  S
C3372      C3373   1.398       .  A
C3372      C3377   1.506       .  S
C3373      C3374   1.402       .  A
C3373      H3378   1.084       .  S
C3374      C3375   1.415   1_556  A
C3375      C3376   1.398       .  A
C3375      C3379   1.508       .  S
C3376      H3380   1.085       .  S
C3377      H3387   1.111       .  S
C3377      H3388   1.110       .  S
C3377      H3389   1.110       .  S
C3379      H3390   1.111       .  S
C3379      H3391   1.107       .  S
C3379      H3392   1.110       .  S
C3393      C3394   1.397       .  A
C3393      C3398   1.400       .  A
C3393      H3403   1.084       .  S
C3394      C3399   1.469   1_554  S
C3394      C3395   1.407   1_554  A
C3395      C3396   1.399       .  A
C3395      C3400   1.507       .  S
C3396      C3397   1.407   1_556  A
C3396      H3401   1.084       .  S
C3397      C3398   1.420       .  A
C3398      C3402   1.510       .  S
C3399      C3404   1.410       .  A
C3399      C3408   1.399   1_556  A
C3400      H3416   1.110       .  S
C3400      H3417   1.109       .  S
C3400      H3418   1.111       .  S
C3402      H3413   1.109       .  S
C3402      H3414   1.111       .  S
C3402      H3415   1.111       .  S
C3404      C3405   1.400       .  A
C3404      C3409   1.507       .  S
C3405      C3406   1.401       .  A
C3405      H3410   1.084       .  S
C3406      C3407   1.414   1_556  A
C3407      C3408   1.397       .  A
C3407      C3411   1.508       .  S
C3408      H3412   1.085       .  S
C3409      H3419   1.111       .  S
C3409      H3420   1.110       .  S
C3409      H3421   1.110       .  S
C3411      H3422   1.110       .  S
C3411      H3423   1.108       .  S
C3411      H3424   1.110       .  S
C3425      C3426   1.400   1_556  A
C3425      C3430   1.403       .  A
C3425      H3435   1.084       .  S
C3426      C3431   1.474       .  S
C3426      C3427   1.408       .  A
C3427      C3428   1.399       .  A
C3427      C3432   1.507       .  S
C3428      C3429   1.405       .  A
C3428      H3433   1.084       .  S
C3429      C3430   1.419   1_554  A
C3430      C3434   1.509       .  S
C3431      C3436   1.410   1_554  A
C3431      C3440   1.400       .  A
C3432      H3448   1.110       .  S
C3432      H3449   1.110       .  S
C3432      H3450   1.111       .  S
C3434      H3445   1.111       .  S
C3434      H3446   1.109       .  S
C3434      H3447   1.111       .  S
C3436      C3437   1.401       .  A
C3436      C3441   1.506       .  S
C3437      C3438   1.403   1_556  A
C3437      H3442   1.084       .  S
C3438      C3439   1.415       .  A
C3439      C3440   1.400       .  A
C3439      C3443   1.507       .  S
C3440      H3444   1.085       .  S
C3441      H3451   1.111       .  S
C3441      H3452   1.110       .  S
C3441      H3453   1.110       .  S
C3443      H3454   1.110       .  S
C3443      H3455   1.108       .  S
C3443      H3456   1.110       .  S
C3457      C3462   1.402       .  A
C3457      H3467   1.084       .  S
C3458      C3463   1.485       .  S
C3458      C3459   1.410       .  A
C3459      C3460   1.411       .  A
C3459      C3464   1.505       .  S
C3460      H3465   1.083       .  S
C3461      C3462   1.423       .  A
C3462      C3466   1.511       .  S
C3463      C3468   1.411       .  A
C3464      H3480   1.111       .  S
C3464      H3481   1.110       .  S
C3464      H3482   1.111       .  S
C3466      H3477   1.109       .  S
C3466      H3478   1.111       .  S
C3466      H3479   1.111       .  S
C3468      C3469   1.405       .  A
C3468      C3473   1.507       .  S
C3469      C3470   1.405   1_565  A
C3469      H3474   1.083       .  S
C3471      C3472   1.406       .  A
C3471      C3475   1.502       .  S
C3472      H3476   1.085       .  S
C3473      H3483   1.111       .  S
C3473      H3484   1.110       .  S
C3473      H3485   1.110       .  S
C3475      H3486   1.110       .  S
C3475      H3487   1.106       .  S
C3475      H3488   1.110       .  S
C3489      C3494   1.406       .  A
C3489      H3499   1.084       .  S
C3490      C3495   1.492       .  S
C3490      C3491   1.413       .  A
C3491      C3492   1.408       .  A
C3491      C3496   1.505       .  S
C3492      C3493   1.403       .  A
C3492      H3497   1.082       .  S
C3494      C3498   1.509       .  S
C3495      C3500   1.408       .  A
C3496      H3512   1.110       .  S
C3496      H3513   1.110       .  S
C3496      H3514   1.111       .  S
C3498      H3509   1.110       .  S
C3498      H3510   1.111       .  S
C3498      H3511   1.108       .  S
C3500      C3501   1.408       .  A
C3500      C3505   1.507       .  S
C3501      H3506   1.077       .  S
C3502      C3503   1.433       .  A
C3503      C3504   1.409       .  A
C3503      C3507   1.510       .  S
C3504      H3508   1.085       .  S
C3505      H3515   1.111       .  S
C3505      H3516   1.110       .  S
C3505      H3517   1.111       .  S
C3507      H3518   1.110       .  S
C3507      H3519   1.099       .  S
C3507      H3520   1.111       .  S
C3521      C3526   1.408       .  A
C3521      H3531   1.084       .  S
C3522      C3527   1.492       .  S
C3522      C3523   1.412       .  A
C3523      C3524   1.407       .  A
C3523      C3528   1.506       .  S
C3524      C3525   1.406       .  A
C3524      H3529   1.084       .  S
C3526      C3530   1.506       .  S
C3527      C3536   1.401       .  A
C3528      H3544   1.109       .  S
C3528      H3545   1.110       .  S
C3528      H3546   1.111       .  S
C3530      H3541   1.111       .  S
C3530      H3542   1.109       .  S
C3530      H3543   1.111       .  S
C3532      C3533   1.407       .  A
C3532      C3537   1.507       .  S
C3533      H3538   1.084       .  S
C3534      C3535   1.421       .  A
C3535      C3536   1.407       .  A
C3535      C3539   1.503       .  S
C3536      H3540   1.085       .  S
C3537      H3547   1.111       .  S
C3537      H3548   1.110       .  S
C3537      H3549   1.110       .  S
C3539      H3550   1.111       .  S
C3539      H3551   1.096       .  S
C3539      H3552   1.110       .  S
C3553      C3558   1.411       .  A
C3553      H3563   1.084       .  S
C3554      C3559   1.492       .  S
C3554      C3555   1.414   1_655  A
C3555      C3556   1.405       .  A
C3555      C3560   1.508       .  S
C3556      C3557   1.402   1_455  A
C3556      H3561   1.082       .  S
C3558      C3562   1.507       .  S
C3559      C3568   1.399       .  A
C3560      H3576   1.110       .  S
C3560      H3577   1.108       .  S
C3560      H3578   1.111       .  S
C3562      H3573   1.109       .  S
C3562      H3574   1.111       .  S
C3562      H3575   1.110       .  S
C3564      C3565   1.412       .  A
C3564      C3569   1.507       .  S
C3565      H3570   1.084       .  S
C3566      C3567   1.418       .  A
C3567      C3568   1.405       .  A
C3567      C3571   1.506       .  S
C3568      H3572   1.084       .  S
C3569      H3579   1.111       .  S
C3569      H3580   1.110       .  S
C3569      H3581   1.108       .  S
C3571      H3582   1.111       .  S
C3571      H3583   1.110       .  S
C3571      H3584   1.106   1_655  S
C3585      C3586   1.403       .  A
C3585      C3590   1.409       .  A
C3585      H3595   1.084       .  S
C3586      C3591   1.483       .  S
C3586      C3587   1.409       .  A
C3587      C3588   1.400       .  A
C3587      C3592   1.508       .  S
C3588      C3589   1.407       .  A
C3588      H3593   1.084       .  S
C3589      C3590   1.417       .  A
C3590      C3594   1.507       .  S
C3591      C3596   1.411       .  A
C3591      C3600   1.400       .  A
C3592      H3608   1.110       .  S
C3592      H3609   1.109       .  S
C3592      H3610   1.111       .  S
C3594      H3605   1.110       .  S
C3594      H3606   1.111       .  S
C3594      H3607   1.111       .  S
C3596      C3597   1.407       .  A
C3596      C3601   1.506       .  S
C3597      C3598   1.405       .  A
C3597      H3602   1.084       .  S
C3598      C3599   1.420       .  A
C3599      C3600   1.403       .  A
C3599      C3603   1.509       .  S
C3600      H3604   1.085       .  S
C3601      H3611   1.110       .  S
C3601      H3612   1.110       .  S
C3601      H3613   1.109       .  S
C3603      H3614   1.111       .  S
C3603      H3615   1.107       .  S
C3603      H3616   1.110       .  S
C3617      C3618   1.398       .  A
C3617      C3622   1.408       .  A
C3617      H3627   1.085       .  S
C3618      C3623   1.492       .  S
C3618      C3619   1.407       .  A
C3619      C3620   1.408       .  A
C3619      C3624   1.508       .  S
C3620      C3621   1.417       .  A
C3620      H3625   1.076       .  S
C3621      C3622   1.432       .  A
C3622      C3626   1.510       .  S
C3623      C3628   1.412       .  A
C3623      C3632   1.403       .  A
C3624      H3640   1.110       .  S
C3624      H3641   1.108       .  S
C3624      H3642   1.111       .  S
C3626      H3637   1.110       .  S
C3626      H3638   1.111       .  S
C3626      H3639   1.100       .  S
C3628      C3629   1.408       .  A
C3628      C3633   1.507       .  S
C3629      C3630   1.407       .  A
C3629      H3634   1.084       .  S
C3630      C3631   1.419       .  A
C3631      C3632   1.409       .  A
C3631      C3635   1.504       .  S
C3632      H3636   1.084       .  S
C3633      H3643   1.111       .  S
C3633      H3644   1.110       .  S
C3633      H3645   1.109       .  S
C3635      H3646   1.110       .  S
C3635      H3647   1.106       .  S
C3635      H3648   1.110       .  S
C3649      C3650   1.398       .  A
C3649      C3654   1.403       .  A
C3649      H3659   1.085       .  S
C3650      C3655   1.487       .  S
C3650      C3651   1.410       .  A
C3651      C3652   1.410       .  A
C3651      C3656   1.506       .  S
C3652      C3653   1.408       .  A
C3652      H3657   1.078       .  S
C3653      C3654   1.422       .  A
C3654      C3658   1.506       .  S
C3655      C3660   1.406       .  A
C3655      C3664   1.403       .  A
C3656      H3672   1.110       .  S
C3656      H3673   1.110       .  S
C3656      H3674   1.111       .  S
C3658      H3669   1.111       .  S
C3658      H3670   1.110       .  S
C3658      H3671   1.105       .  S
C3660      C3661   1.401       .  A
C3660      C3665   1.508       .  S
C3661      C3662   1.415       .  A
C3661      H3666   1.083       .  S
C3662      C3663   1.423       .  A
C3663      C3664   1.412       .  A
C3663      C3667   1.507       .  S
C3664      H3668   1.084       .  S
C3665      H3675   1.111       .  S
C3665      H3676   1.110       .  S
C3665      H3677   1.110       .  S
C3667      H3678   1.111       .  S
C3667      H3679   1.110       .  S
C3667      H3680   1.109       .  S
C3681      C3682   1.403       .  A
C3681      C3686   1.412       .  A
C3681      H3691   1.084       .  S
C3682      C3687   1.490       .  S
C3682      C3683   1.407       .  A
C3683      C3684   1.404       .  A
C3683      C3688   1.507       .  S
C3684      C3685   1.412       .  A
C3684      H3689   1.083       .  S
C3685      C3686   1.424       .  A
C3686      C3690   1.506       .  S
C3687      C3692   1.412       .  A
C3687      C3696   1.401       .  A
C3688      H3704   1.110       .  S
C3688      H3705   1.109       .  S
C3688      H3706   1.111       .  S
C3690      H3701   1.104       .  S
C3690      H3702   1.111       .  S
C3690      H3703   1.110       .  S
C3692      C3693   1.406       .  A
C3692      C3697   1.507       .  S
C3693      C3694   1.406       .  A
C3693      H3698   1.084       .  S
C3694      C3695   1.418       .  A
C3695      C3696   1.410       .  A
C3695      C3699   1.502       .  S
C3696      H3700   1.084       .  S
C3697      H3707   1.111       .  S
C3697      H3708   1.110       .  S
C3697      H3709   1.110       .  S
C3699      H3710   1.111       .  S
C3699      H3711   1.105       .  S
C3699      H3712   1.107       .  S
C3713      C3714   1.398       .  A
C3713      C3718   1.404       .  A
C3713      H3723   1.084       .  S
C3714      C3719   1.475       .  S
C3714      C3715   1.406       .  A
C3715      C3716   1.400       .  A
C3715      C3720   1.507       .  S
C3716      C3717   1.409       .  A
C3716      H3721   1.080       .  S
C3717      C3718   1.424       .  A
C3718      C3722   1.508       .  S
C3719      C3724   1.410       .  A
C3719      C3728   1.401       .  A
C3720      H3736   1.110       .  S
C3720      H3737   1.110       .  S
C3720      H3738   1.111       .  S
C3722      H3733   1.110       .  S
C3722      H3734   1.111       .  S
C3722      H3735   1.109       .  S
C3724      C3725   1.402       .  A
C3724      C3729   1.506       .  S
C3725      C3726   1.402       .  A
C3725      H3730   1.084       .  S
C3726      C3727   1.413       .  A
C3727      C3728   1.400       .  A
C3727      C3731   1.508       .  S
C3728      H3732   1.085       .  S
C3729      H3739   1.111       .  S
C3729      H3740   1.110       .  S
C3729      H3741   1.110       .  S
C3731      H3742   1.110       .  S
C3731      H3743   1.108       .  S
C3731      H3744   1.111       .  S
C3745      C3746   1.399       .  A
C3745      C3750   1.399       .  A
C3745      H3755   1.085       .  S
C3746      C3751   1.469       .  S
C3746      C3747   1.410       .  A
C3747      C3748   1.399       .  A
C3747      C3752   1.507       .  S
C3748      C3749   1.403       .  A
C3748      H3753   1.084       .  S
C3749      C3750   1.414       .  A
C3750      C3754   1.507       .  S
C3751      C3756   1.408       .  A
C3751      C3760   1.397       .  A
C3752      H3768   1.110       .  S
C3752      H3769   1.109       .  S
C3752      H3770   1.111       .  S
C3754      H3765   1.110       .  S
C3754      H3766   1.110       .  S
C3754      H3767   1.108       .  S
C3756      C3757   1.400       .  A
C3756      C3761   1.507       .  S
C3757      C3758   1.404       .  A
C3757      H3762   1.084       .  S
C3758      C3759   1.420       .  A
C3759      C3760   1.400       .  A
C3759      C3763   1.510       .  S
C3760      H3764   1.084       .  S
C3761      H3771   1.111       .  S
C3761      H3772   1.110       .  S
C3761      H3773   1.109       .  S
C3763      H3774   1.111       .  S
C3763      H3775   1.111       .  S
C3763      H3776   1.109       .  S
C3777      C3778   1.399       .  A
C3777      C3782   1.397       .  A
C3777      H3787   1.085       .  S
C3778      C3783   1.468       .  S
C3778      C3779   1.409       .  A
C3779      C3780   1.399       .  A
C3779      C3784   1.507       .  S
C3780      C3781   1.403       .  A
C3780      H3785   1.084       .  S
C3781      C3782   1.414       .  A
C3782      C3786   1.507       .  S
C3783      C3788   1.406       .  A
C3783      C3792   1.396       .  A
C3784      H3800   1.110       .  S
C3784      H3801   1.110       .  S
C3784      H3802   1.111       .  S
C3786      H3797   1.110       .  S
C3786      H3798   1.110       .  S
C3786      H3799   1.107       .  S
C3788      C3789   1.400       .  A
C3788      C3793   1.507       .  S
C3789      C3790   1.409       .  A
C3789      H3794   1.084       .  S
C3790      C3791   1.420       .  A
C3791      C3792   1.398       .  A
C3791      C3795   1.508       .  S
C3792      H3796   1.085       .  S
C3793      H3803   1.111       .  S
C3793      H3804   1.110       .  S
C3793      H3805   1.110       .  S
C3795      H3806   1.111       .  S
C3795      H3807   1.110       .  S
C3795      H3808   1.110       .  S
C3809      C3810   1.400       .  A
C3809      C3814   1.403       .  A
C3809      H3819   1.084       .  S
C3810      C3815   1.478       .  S
C3810      C3811   1.411       .  A
C3811      C3812   1.403       .  A
C3811      C3816   1.507       .  S
C3812      C3813   1.405       .  A
C3812      H3817   1.084       .  S
C3813      C3814   1.418       .  A
C3814      C3818   1.510       .  S
C3815      C3820   1.412       .  A
C3815      C3824   1.400       .  A
C3816      H3832   1.110       .  S
C3816      H3833   1.108       .  S
C3816      H3834   1.111       .  S
C3818      H3829   1.109       .  S
C3818      H3830   1.111       .  S
C3818      H3831   1.111       .  S
C3820      C3821   1.404       .  A
C3820      C3825   1.507       .  S
C3821      C3822   1.404       .  A
C3821      H3826   1.084       .  S
C3822      C3823   1.416       .  A
C3823      C3824   1.401       .  A
C3823      C3827   1.508       .  S
C3824      H3828   1.085       .  S
C3825      H3835   1.111       .  S
C3825      H3836   1.110       .  S
C3825      H3837   1.109       .  S
C3827      H3838   1.110       .  S
C3827      H3839   1.108       .  S
C3827      H3840   1.110       .  S
C3841      C3842   1.398       .  A
C3841      C3846   1.406       .  A
C3841      H3851   1.085       .  S
C3842      C3847   1.490       .  S
C3842      C3843   1.407       .  A
C3843      C3844   1.406       .  A
C3843      C3848   1.508       .  S
C3844      C3845   1.417       .  A
C3844      H3849   1.073       .  S
C3845      C3846   1.432       .  A
C3846      C3850   1.513       .  S
C3847      C3852   1.408       .  A
C3847      C3856   1.403       .  A
C3848      H3864   1.110       .  S
C3848      H3865   1.110       .  S
C3848      H3866   1.111       .  S
C3850      H3861   1.110       .  S
C3850      H3862   1.111       .  S
C3850      H3863   1.102       .  S
C3852      C3853   1.403       .  A
C3852      C3857   1.509       .  S
C3853      C3854   1.414       .  A
C3853      H3858   1.082       .  S
C3854      C3855   1.422       .  A
C3855      C3856   1.412       .  A
C3855      C3859   1.506       .  S
C3856      H3860   1.084       .  S
C3857      H3867   1.111       .  S
C3857      H3868   1.110       .  S
C3857      H3869   1.110       .  S
C3859      H3870   1.111       .  S
C3859      H3871   1.110       .  S
C3859      H3872   1.110       .  S
C3873      C3874   1.396       .  A
C3873      C3878   1.402       .  A
C3873      H3883   1.085       .  S
C3874      C3879   1.486       .  S
C3874      C3875   1.412       .  A
C3875      C3876   1.410       .  A
C3875      C3880   1.505       .  S
C3876      C3877   1.407       .  A
C3876      H3881   1.084       .  S
C3877      C3878   1.424       .  A
C3878      C3882   1.508       .  S
C3879      C3884   1.412       .  A
C3879      C3888   1.402       .  A
C3880      H3896   1.110       .  S
C3880      H3897   1.109       .  S
C3880      H3898   1.111       .  S
C3882      H3893   1.109       .  S
C3882      H3894   1.111       .  S
C3882      H3895   1.110       .  S
C3884      C3885   1.407       .  A
C3884      C3889   1.507       .  S
C3885      C3886   1.406       .  A
C3885      H3890   1.084       .  S
C3886      C3887   1.416       .  A
C3887      C3888   1.407       .  A
C3887      C3891   1.507       .  S
C3888      H3892   1.084       .  S
C3889      H3899   1.111       .  S
C3889      H3900   1.111       .  S
C3889      H3901   1.109       .  S
C3891      H3902   1.111       .  S
C3891      H3903   1.110       .  S
C3891      H3904   1.107       .  S
C3905      C3906   1.403       .  A
C3905      C3910   1.408       .  A
C3905      H3915   1.084       .  S
C3906      C3911   1.492       .  S
C3906      C3907   1.413       .  A
C3907      C3908   1.408       .  A
C3907      C3912   1.506       .  S
C3908      C3909   1.402       .  A
C3908      H3913   1.084       .  S
C3909      C3910   1.418       .  A
C3910      C3914   1.508       .  S
C3911      C3916   1.413       .  A
C3911      C3920   1.403       .  A
C3912      H3928   1.110       .  S
C3912      H3929   1.111       .  S
C3912      H3930   1.110       .  S
C3914      H3925   1.110       .  S
C3914      H3926   1.110       .  S
C3914      H3927   1.108       .  S
C3916      C3917   1.408       .  A
C3916      C3921   1.506       .  S
C3917      C3918   1.404       .  A
C3917      H3922   1.084       .  S
C3918      C3919   1.417       .  A
C3919      C3920   1.407       .  A
C3919      C3923   1.509       .  S
C3920      H3924   1.084       .  S
C3921      H3931   1.111       .  S
C3921      H3932   1.110       .  S
C3921      H3933   1.110       .  S
C3923      H3934   1.110       .  S
C3923      H3935   1.108       .  S
C3923      H3936   1.110       .  S
C3937      C3938   1.402       .  A
C3937      C3942   1.409       .  A
C3937      H3947   1.084       .  S
C3938      C3943   1.497       .  S
C3938      C3939   1.415       .  A
C3939      C3940   1.411       .  A
C3939      C3944   1.506       .  S
C3940      C3941   1.405       .  A
C3940      H3945   1.084       .  S
C3941      C3942   1.420       .  A
C3942      C3946   1.509       .  S
C3943      C3948   1.414       .  A
C3943      C3952   1.403       .  A
C3944      H3960   1.109       .  S
C3944      H3961   1.110       .  S
C3944      H3962   1.111       .  S
C3946      H3957   1.111       .  S
C3946      H3958   1.111       .  S
C3946      H3959   1.108       .  S
C3948      C3949   1.412       .  A
C3948      C3953   1.505       .  S
C3949      C3950   1.406       .  A
C3949      H3954   1.084       .  S
C3950      C3951   1.417       .  A
C3951      C3952   1.406       .  A
C3951      C3955   1.507       .  S
C3952      H3956   1.084       .  S
C3953      H3963   1.111       .  S
C3953      H3964   1.110       .  S
C3953      H3965   1.110       .  S
C3955      H3966   1.111       .  S
C3955      H3967   1.108       .  S
C3955      H3968   1.110       .  S
