geometry optimzed in LAMMPS
_audit_creation_date              2020-11-30 
_audit_creation_method            'lammps2cif' 
_symmetry_space_group_name_H-M    'P1' 
_symmetry_Int_Tables_number       1 
_symmetry_cell_setting            triclinic 
loop_ 
_symmetry_equiv_pos_as_xyz 
  x,y,z 
_cell_length_a                    26.1155155 
_cell_length_b                    25.330038095742758 
_cell_length_c                    40.30581580976504 
_cell_angle_alpha                 89.94934860375348 
_cell_angle_beta                  90.03521149438406 
_cell_angle_gamma                 89.89916638143713 
loop_ 
_atom_site_label 
_atom_site_type_symbol 
_atom_site_fract_x 
_atom_site_fract_y 
_atom_site_fract_z 
_atom_site_charge 
O1          O  0.52458289  0.40943565  0.40505883    -0.86800
O2          O  0.52407496  0.41650670  0.59537529    -0.87000
O3          O  0.60952338  0.34973488  0.50098098    -0.88700
O4          O  0.44297869  0.35114467  0.50314839    -0.87400
O5          O  0.38279797  0.41696518  0.50062136    -0.87000
O6          O  0.67106570  0.41388747  0.49851138    -0.88400
O7          O  0.52693637  0.35244400  0.55508578    -0.86800
O8          O  0.52518316  0.34898193  0.44757893    -0.86400
Zr9        Zr  0.52638599  0.39420480  0.50057809     2.84300
O10         O  0.47592399  0.44953917  0.53352600    -1.08400
O11         O  0.57718448  0.44479500  0.46482814    -1.09100
C12         C  0.52420195  0.36161437  0.41654269     1.06300
C13         C  0.52518954  0.36764662  0.58567977     1.06200
C14         C  0.65657834  0.36541913  0.49999024     1.09200
C15         C  0.39627818  0.36804448  0.50247532     1.07000
H16         H  0.59915881  0.42585608  0.54720241     0.32600
O17         O  0.57778429  0.44805252  0.53348203    -1.29400
H18         H  0.45389612  0.42358703  0.45240483     0.32200
O19         O  0.47583541  0.44627881  0.46532816    -1.31000
O20         O  0.52670525  0.59243810  0.59238431    -0.86800
O21         O  0.52735345  0.58508879  0.40208387    -0.88300
O22         O  0.67209354  0.49557736  0.55100628    -0.86900
O23         O  0.38311586  0.50187029  0.55172704    -0.86900
O24         O  0.38208963  0.49439453  0.44515255    -0.86700
O25         O  0.67019678  0.49082539  0.44386212    -0.86500
O26         O  0.61333950  0.64756940  0.49771770    -0.86800
O27         O  0.44757397  0.65089869  0.49533853    -0.86300
O28         O  0.67354800  0.58165606  0.49586193    -0.87400
O29         O  0.38502672  0.58743964  0.49321517    -0.86500
O30         O  0.61340104  0.49987475  0.59342160    -0.86900
O31         O  0.61054826  0.49356382  0.40201659    -0.86600
O32         O  0.44147819  0.49619847  0.40317974    -0.86300
O33         O  0.44200107  0.50411343  0.59408908    -0.86700
O34         O  0.52999485  0.65293267  0.54995900    -0.87000
O35         O  0.53025057  0.64703403  0.44351559    -0.88300
Zr36       Zr  0.52742567  0.50320900  0.56744231     2.83100
Zr37       Zr  0.52663184  0.49802833  0.42975239     2.83500
Zr38       Zr  0.62869811  0.49837131  0.49781968     2.84100
Zr39       Zr  0.42584350  0.50156741  0.49828185     2.83400
Zr40       Zr  0.52946991  0.60551983  0.49748098     2.84200
O41         O  0.47695304  0.55322643  0.46370926    -1.08900
O42         O  0.58021884  0.55352917  0.53222603    -1.08400
C43         C  0.52796185  0.64043525  0.58101344     1.06300
C44         C  0.52922142  0.63342991  0.41271067     1.08900
C45         C  0.65978739  0.49577970  0.58203283     1.06400
C46         C  0.39547733  0.50223446  0.58275772     1.06800
C47         C  0.39489460  0.49347364  0.41420754     1.06400
C48         C  0.65709951  0.48987374  0.41293082     1.05900
C49         C  0.65993676  0.63053495  0.49657085     1.06400
C50         C  0.40056696  0.63577372  0.49307737     1.05900
H51         H  0.60124516  0.57255399  0.44925902     0.32500
O52         O  0.57922571  0.55147812  0.46312104    -1.30000
H53         H  0.45486694  0.57848320  0.54500908     0.32600
O54         O  0.47660655  0.55537613  0.53204106    -1.31400
N55         N  0.03038983  0.91983382  0.49177257    -0.36900
N56         N  0.94964443  0.99625206  0.50465843    -0.57500
N57         N  0.02558364  0.07796596  0.50800128    -0.36900
N58         N  0.10583960  0.00233597  0.49806151    -0.57500
C59         C  0.99088065  0.88860285  0.50075765     0.26600
C60         C  0.07379291  0.89183494  0.49665165     0.26700
C61         C  0.98374109  0.10220054  0.52035536     0.26600
C62         C  0.06678127  0.10533321  0.51851397     0.26600
C63         C  0.92292912  0.95471263  0.49308660     0.35300
C64         C  0.92029261  0.03927630  0.49925245     0.35300
C65         C  0.13485935  0.96348881  0.48509693     0.35300
C66         C  0.13231380  0.04746696  0.49386675     0.35300
C67         C  0.00929887  0.84017449  0.51154717    -0.22200
C68         C  0.06180386  0.84218294  0.50889014    -0.22200
C69         C  0.99842362  0.14488696  0.53965561    -0.22200
C70         C  0.05109127  0.14693436  0.53843210    -0.22200
C71         C  0.87647923  0.97114315  0.48006614    -0.23300
C72         C  0.87505111  0.02506404  0.48358625    -0.23300
C73         C  0.17983264  0.98392365  0.47221271    -0.23300
C74         C  0.17810910  0.03740464  0.47762168    -0.23300
C75         C  0.93879332  0.90200369  0.49688304    -0.18600
C76         C  0.12345372  0.90953733  0.48859693    -0.18600
C77         C  0.11725799  0.09630008  0.50750498    -0.18600
C78         C  0.93319640  0.09014224  0.51072490    -0.18600
H79         H  0.98724573  0.80674947  0.52017920     0.14300
H80         H  0.08808443  0.81065542  0.51520301     0.14300
H81         H  0.97370021  0.17264383  0.55232746     0.14300
H82         H  0.07496749  0.17652143  0.55003986     0.14300
H83         H  0.84689673  0.94681478  0.46915885     0.12600
H84         H  0.84407783  0.05058055  0.47572240     0.12600
H85         H  0.21101600  0.96241266  0.46078993     0.12600
H86         H  0.20765663  0.06536510  0.47097048     0.12600
H87         H  0.02755379  0.95601092  0.47957395     0.25800
H88         H  0.02546649  0.04947225  0.48937900     0.25800
O89         O  0.97073547  0.90507595  0.90763171    -0.86800
O90         O  0.96049520  0.90877720  0.09757850    -0.87000
O91         O  0.04624364  0.84508719  0.99923639    -0.88700
O92         O  0.88227357  0.84675680  0.00220964    -0.87400
O93         O  0.82008175  0.91070546  0.00350839    -0.87000
O94         O  0.10852378  0.90846283  0.00314256    -0.88400
O95         O  0.96157158  0.84670731  0.05604696    -0.86800
O96         O  0.96632126  0.84390726  0.94954515    -0.86400
Zr97       Zr  0.96433212  0.89013298  0.00242578     2.84300
O98         O  0.91213481  0.94339872  0.03570297    -1.08400
O99         O  0.01692717  0.94173420  0.96903489    -1.09100
C100        C  0.96965593  0.85682168  0.91861064     1.06300
C101        C  0.96026096  0.86042348  0.08687459     1.06200
C102        C  0.09324856  0.86038524  0.00008053     1.09200
C103        C  0.83532526  0.86219651  0.00324142     1.07000
H104        H  0.03539716  0.91899494  0.05175711     0.32600
O105        O  0.01450518  0.94159005  0.03795818    -1.29400
H106        H  0.89307875  0.91955561  0.95363775     0.32200
O107        O  0.91422186  0.94213252  0.96719411    -1.31000
O108        O  0.96881961  0.08586662  0.09529087    -0.86800
O109        O  0.97157017  0.08050231  0.90499367    -0.88300
O110        O  0.10683681  0.99129322  0.05883248    -0.86900
O111        O  0.81844914  0.99955599  0.05381751    -0.86900
O112        O  0.82142032  0.99260973  0.94618138    -0.86700
O113        O  0.11210466  0.99105868  0.95178003    -0.86500
O114        O  0.04921917  0.14226830  0.00115226    -0.86800
O115        O  0.88238611  0.14568449  0.99994783    -0.86300
O116        O  0.11030103  0.07762731  0.00651967    -0.87400
O117        O  0.82054832  0.08150856  0.00082537    -0.86500
O118        O  0.04543019  0.99637116  0.09949677    -0.86900
O119        O  0.05420789  0.99291461  0.90876193    -0.86600
O120        O  0.88264199  0.99411831  0.90517566    -0.86300
O121        O  0.87616547  0.99941130  0.09686131    -0.86700
O122        O  0.96912304  0.14641662  0.05285490    -0.87000
O123        O  0.96841411  0.14312422  0.94603010    -0.88300
Zr124      Zr  0.96210791  0.99663039  0.07082807     2.83100
Zr125      Zr  0.96729588  0.99393780  0.93303039     2.83500
Zr126      Zr  0.06655601  0.99376212  0.00427668     2.84100
Zr127      Zr  0.86258424  0.99598655  0.00054319     2.83400
Zr128      Zr  0.96520974  0.10057055  0.00028923     2.84200
O129        O  0.91427205  0.04796524  0.96599609    -1.08900
O130        O  0.01430215  0.04829114  0.03623754    -1.08400
C131        C  0.97085403  0.13379117  0.08384827     1.06300
C132        C  0.97125135  0.12905996  0.91524703     1.08900
C133        C  0.09249105  0.99307847  0.08949307     1.06400
C134        C  0.82988923  0.00083745  0.08503762     1.06800
C135        C  0.83547681  0.99243302  0.91539657     1.06400
C136        C  0.10040918  0.99109588  0.92063849     1.05900
C137        C  0.09596406  0.12614680  0.00412102     1.06400
C138        C  0.83528923  0.13010330  0.00082678     1.05900
H139        H  0.04057574  0.06808897  0.95499470     0.32500
O140        O  0.01795144  0.04649700  0.96819049    -1.30000
H141        H  0.89138233  0.07254514  0.04794191     0.32600
O142        O  0.91281628  0.04950422  0.03482842    -1.31400
N143        N  0.46519136  0.57751628  0.99178889    -0.36900
N144        N  0.38508814  0.49808628  0.98653860    -0.57500
N145        N  0.46137504  0.41697355  0.99510359    -0.36900
N146        N  0.54106970  0.49584675  0.99683501    -0.57500
C147        C  0.42606100  0.60660549  0.97970938     0.26600
C148        C  0.50850753  0.60572260  0.98734427     0.26700
C149        C  0.42010487  0.38916517  0.98522583     0.26600
C150        C  0.50317064  0.38801254  0.98737658     0.26600
C151        C  0.35667564  0.54215566  0.99035190     0.35300
C152        C  0.35464005  0.45721150  0.99502978     0.35300
C153        C  0.56899305  0.53755891  0.00692922     0.35300
C154        C  0.56748290  0.45246047  0.00598541     0.35300
C155        C  0.44458855  0.65403127  0.96742057    -0.22200
C156        C  0.49683377  0.65342619  0.97217239    -0.22200
C157        C  0.43562000  0.34219293  0.97074837    -0.22200
C158        C  0.48829511  0.34161624  0.97189642    -0.22200
C159        C  0.30783270  0.52935176  0.00110703    -0.23300
C160        C  0.30671075  0.47542827  0.00445116    -0.23300
C161        C  0.61312302  0.52066330  0.02287754    -0.23300
C162        C  0.61216196  0.46654789  0.02227457    -0.23300
C163        C  0.37384626  0.59351878  0.98290419    -0.18600
C164        C  0.55748450  0.59026239  0.99862494    -0.18600
C165        C  0.55364787  0.40078689  0.99686271    -0.18600
C166        C  0.36900306  0.40377893  0.99155504    -0.18600
H167        H  0.42259661  0.68612198  0.95678633     0.14300
H168        H  0.52302842  0.68482305  0.96565445     0.14300
H169        H  0.41145754  0.31141714  0.96070924     0.14300
H170        H  0.51274585  0.31015398  0.96298497     0.14300
H171        H  0.27642050  0.55606796  0.00620728     0.12600
H172        H  0.27415237  0.45243643  0.01254752     0.12600
H173        H  0.64326866  0.54478400  0.03329954     0.12600
H174        H  0.64131720  0.44060956  0.03226772     0.12600
H175        H  0.46170007  0.54351158  0.00609141     0.25800
H176        H  0.46055409  0.45036829  0.01016835     0.25800
C177        C  0.07153617  0.49655724  0.27480720     0.86200
C178        C  0.06858173  0.45071879  0.25025189    -0.54100
C179        C  0.02449970  0.44910240  0.23210797     0.09100
C180        C  0.98711023  0.49474196  0.23961669     0.20000
C181        C  0.06247310  0.54653837  0.25390798    -0.54800
C182        C  0.01835234  0.54622184  0.23551086     0.09200
C183        C  0.02214966  0.49180614  0.29558857    -0.54300
C184        C  0.97798901  0.49013768  0.27721412     0.09800
H185        H  0.09794463  0.42038866  0.24855819     0.14300
H186        H  0.95122171  0.49303038  0.22490288     0.00000
H187        H  0.08850170  0.57982843  0.25407909     0.14600
H188        H  0.02170831  0.49018637  0.32248239     0.14400
C189        C  0.41290318  0.99799912  0.23146637     0.86200
C190        C  0.42383126  0.94921702  0.25288611    -0.54100
C191        C  0.47033438  0.94984917  0.26848873     0.09100
C192        C  0.50212553  0.99979355  0.26149556     0.20000
C193        C  0.42059610  0.04536475  0.25468416    -0.54800
C194        C  0.46684044  0.04654581  0.27023118     0.09200
C195        C  0.45926406  0.00127693  0.20779445    -0.54300
C196        C  0.50622447  0.00197219  0.22328630     0.09800
H197        H  0.39747436  0.91623008  0.25487382     0.14300
H198        H  0.53960979  0.00085331  0.27448833     0.00000
H199        H  0.39384996  0.07775420  0.25741959     0.14600
H200        H  0.45502508  0.00234231  0.18101887     0.14400
C201        C  0.07439566  0.49683974  0.72527239     0.86200
C202        C  0.06630787  0.54421988  0.74836340    -0.54100
C203        C  0.02173924  0.54336436  0.76613045     0.09100
C204        C  0.98879893  0.49339992  0.75943328     0.20000
C205        C  0.06937627  0.44807387  0.74753464    -0.54800
C206        C  0.02483437  0.44542140  0.76529602     0.09200
C207        C  0.02545848  0.49630888  0.70388124    -0.54300
C208        C  0.98052741  0.49338139  0.72136198     0.09800
H209        H  0.09227658  0.57746589  0.74964027     0.14300
H210        H  0.95260788  0.49169746  0.77383242     0.00000
H211        H  0.09833447  0.41725933  0.74842020     0.14600
H212        H  0.02629722  0.49751117  0.67696057     0.14400
C213        C  0.41757087  0.00175644  0.77496875     0.86200
C214        C  0.42419772  0.05121458  0.75332688    -0.54100
C215        C  0.46852160  0.05264006  0.73516440     0.09100
C216        C  0.50211534  0.00237692  0.73985564     0.20000
C217        C  0.42238509  0.95539047  0.75089429    -0.54800
C218        C  0.46655779  0.95427126  0.73258093     0.09200
C219        C  0.46708441  0.00008840  0.79576019    -0.54300
C220        C  0.51149404  0.99977042  0.77772547     0.09800
H221        H  0.39723796  0.08372146  0.75329566     0.14300
H222        H  0.53822026  0.00258708  0.72540798     0.00000
H223        H  0.39271661  0.92561312  0.74896304     0.14600
H224        H  0.46698866  0.99973814  0.82269573     0.14400
C225        C  0.13414753  0.99013190  0.11449406    -0.01600
C226        C  0.13399767  0.02143899  0.14313351    -0.09600
C227        C  0.17663869  0.02214588  0.16441257    -0.18500
C228        C  0.22059339  0.99080045  0.15779841     0.03900
C229        C  0.21912267  0.95732787  0.12954163     0.18100
C230        C  0.17652613  0.95758879  0.10829933    -0.19900
C231        C  0.26061075  0.92435093  0.12215074    -0.21200
C232        C  0.30439301  0.92475328  0.14172818    -0.19700
C233        C  0.30812583  0.95857391  0.16901827     0.19500
C234        C  0.26622449  0.99181013  0.17766668     0.01600
C235        C  0.27224302  0.02487029  0.20555552    -0.14400
C236        C  0.31834560  0.02627848  0.22325019    -0.12200
C237        C  0.36080386  0.99527363  0.21372958     0.01200
C238        C  0.35408135  0.95992151  0.18727780    -0.24300
H239        H  0.10163280  0.04687833  0.14843511     0.09200
H240        H  0.17434519  0.04803580  0.18556958     0.12700
H241        H  0.17657287  0.93261893  0.08644126     0.11400
H242        H  0.25942331  0.89839684  0.10079592     0.12600
H243        H  0.33600320  0.89909449  0.13506572     0.11700
H244        H  0.24202573  0.05037949  0.21424372     0.08800
H245        H  0.31944195  0.05144822  0.24478016     0.12000
H246        H  0.38548657  0.93419689  0.18027184     0.13900
C247        C  0.78531482  0.00589561  0.10805361    -0.01600
C248        C  0.74227099  0.03414130  0.09714329    -0.09600
C249        C  0.69766235  0.03684710  0.11601564    -0.18500
C250        C  0.69373439  0.01064979  0.14684781     0.03900
C251        C  0.73760260  0.98274573  0.15850664     0.18100
C252        C  0.78311382  0.98102741  0.13926769    -0.19900
C253        C  0.73522014  0.95602788  0.18896257    -0.21200
C254        C  0.69027026  0.95594594  0.20778735    -0.19700
C255        C  0.64626727  0.98253401  0.19673472     0.19500
C256        C  0.64758041  0.01055959  0.16616596     0.01600
C257        C  0.60234771  0.03681289  0.15601322    -0.14400
C258        C  0.55760292  0.03436927  0.17484631    -0.12200
C259        C  0.55568673  0.00582302  0.20460173     0.01200
C260        C  0.60067594  0.98066014  0.21572399    -0.24300
H261        H  0.74287002  0.05417105  0.07341742     0.09200
H262        H  0.66667764  0.05927464  0.10538210     0.12700
H263        H  0.81598683  0.95882373  0.14800756     0.11400
H264        H  0.76825405  0.93460285  0.19817773     0.12600
H265        H  0.68980636  0.93449860  0.23106320     0.11700
H266        H  0.59998445  0.05950878  0.13347404     0.08800
H267        H  0.52418608  0.05543830  0.16596881     0.12000
H268        H  0.59990173  0.95824950  0.23863401     0.13900
C269        C  0.00187968  0.59263795  0.21513297    -0.01600
C270        C  0.97380369  0.58584909  0.18583739    -0.09600
C271        C  0.96136754  0.62912816  0.16567276    -0.18500
C272        C  0.97688479  0.68101835  0.17414845     0.03900
C273        C  0.00329811  0.68795156  0.20462736     0.18100
C274        C  0.01522097  0.64420743  0.22469241    -0.19900
C275        C  0.01855544  0.73844617  0.21470970    -0.21200
C276        C  0.00957741  0.78224092  0.19466908    -0.19700
C277        C  0.98551294  0.77669055  0.16384998     0.19500
C278        C  0.96828783  0.72605475  0.15328317     0.01600
C279        C  0.94480486  0.72251252  0.12180088    -0.14400
C280        C  0.94079916  0.76662925  0.10118203    -0.12200
C281        C  0.95928774  0.81616765  0.11115365     0.01200
C282        C  0.98025538  0.82119308  0.14302103    -0.24300
H283        H  0.96263290  0.54674808  0.17784257     0.09200
H284        H  0.94018855  0.62054180  0.14338274     0.12700
H285        H  0.03522279  0.65058647  0.24789425     0.11400
H286        H  0.03834834  0.74402788  0.23808563     0.12600
H287        H  0.02265130  0.82058584  0.20301540     0.11700
H288        H  0.93038738  0.68590689  0.11196294     0.08800
H289        H  0.92378761  0.76160743  0.07686510     0.12000
H290        H  0.99485086  0.85917460  0.15099275     0.13900
C291        C  0.97595571  0.17859312  0.10753509    -0.01600
C292        C  0.98962169  0.17043484  0.14076856    -0.09600
C293        C  0.99570769  0.21320616  0.16244328    -0.18500
C294        C  0.98822386  0.26589789  0.15151920     0.03900
C295        C  0.97493110  0.27392750  0.11773192     0.18100
C296        C  0.96878292  0.23071257  0.09634699    -0.19900
C297        C  0.96828495  0.32511928  0.10526274    -0.21200
C298        C  0.97520674  0.36885764  0.12555772    -0.19700
C299        C  0.98839533  0.36255118  0.15895157     0.19500
C300        C  0.99433079  0.31094401  0.17259323     0.01600
C301        C  0.00648091  0.30682703  0.20666607    -0.14400
C302        C  0.01513675  0.35184865  0.22577651    -0.12200
C303        C  0.01126188  0.40236939  0.21184295     0.01200
C304        C  0.99652112  0.40762083  0.17868459    -0.24300
H305        H  0.99628728  0.13085411  0.15001851     0.09200
H306        H  0.00689907  0.20374699  0.18748691     0.12700
H307        H  0.95843866  0.23797886  0.07068818     0.11400
H308        H  0.95818533  0.33142224  0.07947156     0.12600
H309        H  0.97044153  0.40793254  0.11500124     0.11700
H310        H  0.00998890  0.26942379  0.21921576     0.08800
H311        H  0.02525873  0.34720099  0.25169483     0.12000
H312        H  0.99309655  0.44676886  0.16798545     0.13900
C313        C  0.33562440  0.63638005  0.98159727    -0.01600
C314        C  0.29915342  0.63832336  0.95624729    -0.09600
C315        C  0.25941223  0.67517926  0.95743102    -0.18500
C316        C  0.25507447  0.71070876  0.98438892     0.03900
C317        C  0.29412321  0.71001747  0.00901133     0.18100
C318        C  0.33365619  0.67284973  0.00746401    -0.19900
C319        C  0.29313976  0.74583212  0.03536051    -0.21200
C320        C  0.25408312  0.78273188  0.03785466    -0.19700
C321        C  0.21425280  0.78339592  0.01468801     0.19500
C322        C  0.21344928  0.74669947  0.98797866     0.01600
C323        C  0.17038204  0.74681908  0.96664135    -0.14400
C324        C  0.13047611  0.78274527  0.97132463    -0.12200
C325        C  0.13300608  0.82006182  0.99679599     0.01200
C326        C  0.17482666  0.82034577  0.01833156    -0.24300
H327        H  0.30090656  0.61046278  0.93589689     0.09200
H328        H  0.23266966  0.67478650  0.93705614     0.12700
H329        H  0.36230212  0.67112687  0.02694648     0.11400
H330        H  0.32293850  0.74546772  0.05409150     0.12600
H331        H  0.25454816  0.81034406  0.05838656     0.11700
H332        H  0.16606627  0.71919726  0.94651323     0.08800
H333        H  0.09810691  0.78228443  0.95448024     0.12000
H334        H  0.17620368  0.84901971  0.03830225     0.13900
C335        C  0.79625796  0.82070754  0.00380703    -0.01600
C336        C  0.80598464  0.77233459  0.98831466    -0.09600
C337        C  0.76896295  0.73298552  0.98785850    -0.18500
C338        C  0.72091526  0.74081248  0.00321891     0.03900
C339        C  0.71239997  0.78896557  0.02047532     0.18100
C340        C  0.74964953  0.82871299  0.02012714    -0.19900
C341        C  0.66675500  0.79716524  0.03788142    -0.21200
C342        C  0.62879573  0.75879357  0.03802192    -0.19700
C343        C  0.63499329  0.71214253  0.01988313     0.19500
C344        C  0.68101427  0.70267889  0.00196961     0.01600
C345        C  0.68448654  0.65622452  0.98270314    -0.14400
C346        C  0.64405274  0.62067138  0.98141571    -0.12200
C347        C  0.59939578  0.62956415  0.99969768     0.01200
C348        C  0.59505092  0.67521393  0.01901397    -0.24300
H349        H  0.84216724  0.76516009  0.97593963     0.09200
H350        H  0.77937731  0.69681172  0.97554151     0.12700
H351        H  0.74263284  0.86570057  0.03290026     0.11400
H352        H  0.66037727  0.83348995  0.05147489     0.12600
H353        H  0.59385067  0.76620617  0.05175264     0.11700
H354        H  0.71730570  0.64678509  0.96765641     0.08800
H355        H  0.64762240  0.58577814  0.96604706     0.12000
H356        H  0.56028901  0.68208444  0.03308455     0.13900
C357        C  0.59356185  0.35901601  0.99724327    -0.01600
C358        C  0.58609261  0.31254721  0.01532478    -0.09600
C359        C  0.62462541  0.27449736  0.01723219    -0.18500
C360        C  0.67246657  0.28237450  0.00147942     0.03900
C361        C  0.67977678  0.32992322  0.98334947     0.18100
C362        C  0.64014822  0.36702345  0.98084319    -0.19900
C363        C  0.72674210  0.34048086  0.96807628    -0.21200
C364        C  0.76675534  0.30443512  0.97007987    -0.19700
C365        C  0.76046682  0.25661064  0.98695530     0.19500
C366        C  0.71323867  0.24486559  0.00295225     0.01600
C367        C  0.70864678  0.19567112  0.01921270    -0.14400
C368        C  0.74851802  0.15911497  0.01857385    -0.12200
C369        C  0.79463572  0.17054809  0.00241551     0.01200
C370        C  0.80083047  0.21987350  0.98728452    -0.24300
H371        H  0.55043797  0.30600603  0.02842140     0.09200
H372        H  0.61599652  0.23987203  0.03168693     0.12700
H373        H  0.64585222  0.40298999  0.96669655     0.11400
H374        H  0.73259829  0.37693723  0.95450551     0.12600
H375        H  0.80263565  0.31368458  0.95790575     0.11700
H376        H  0.67444830  0.18367412  0.03206864     0.08800
H377        H  0.74313516  0.12146505  0.03078401     0.12000
H378        H  0.83644777  0.22891537  0.97469184     0.13900
C379        C  0.32977287  0.36157929  0.99384681    -0.01600
C380        C  0.33730727  0.31869917  0.01525533    -0.09600
C381        C  0.30092934  0.27865936  0.01759463    -0.18500
C382        C  0.25513363  0.28091338  0.99889545     0.03900
C383        C  0.24764965  0.32488899  0.97743896     0.18100
C384        C  0.28527843  0.36392192  0.97460131    -0.19900
C385        C  0.20242159  0.33006451  0.95915465    -0.21200
C386        C  0.16392194  0.29271111  0.96194504    -0.19700
C387        C  0.17021818  0.24878659  0.98256572     0.19500
C388        C  0.21621313  0.24163453  0.00096561     0.01600
C389        C  0.22119492  0.19537690  0.02042550    -0.14400
C390        C  0.18197735  0.15812784  0.02159164    -0.12200
C391        C  0.13650161  0.16620450  0.00389868     0.01200
C392        C  0.13076257  0.21164796  0.98459519    -0.24300
H393        H  0.37158286  0.31631456  0.03035237     0.09200
H394        H  0.30938433  0.24710486  0.03468584     0.12700
H395        H  0.27974030  0.39669335  0.95763151     0.11400
H396        H  0.19650925  0.36361065  0.94287663     0.12600
H397        H  0.12905439  0.29807359  0.94771933     0.11700
H398        H  0.25507796  0.18643338  0.03462896     0.08800
H399        H  0.18713198  0.12293050  0.03654030     0.12000
H400        H  0.09594212  0.21740637  0.97033672     0.13900
C401        C  0.56293122  0.99608416  0.79407184    -0.01600
C402        C  0.60490356  0.02588323  0.78311344    -0.09600
C403        C  0.65193189  0.02444903  0.80027304    -0.18500
C404        C  0.65855151  0.99262527  0.82896086     0.03900
C405        C  0.61599348  0.96173499  0.83934344     0.18100
C406        C  0.56933918  0.96364049  0.82197855    -0.19900
C407        C  0.61972617  0.92945625  0.86740861    -0.21200
C408        C  0.66431480  0.92812135  0.88612657    -0.19700
C409        C  0.70659815  0.95883212  0.87724523     0.19500
C410        C  0.70508056  0.99076478  0.84818902     0.01600
C411        C  0.74994482  0.01967887  0.84022287    -0.14400
C412        C  0.79333089  0.01856356  0.86105476    -0.12200
C413        C  0.79317753  0.98915745  0.89057868     0.01200
C414        C  0.74995825  0.95853926  0.89792596    -0.24300
H415        H  0.60094757  0.05154253  0.76175217     0.09200
H416        H  0.68222836  0.04915367  0.79087034     0.12700
H417        H  0.53752516  0.93967485  0.83040834     0.11400
H418        H  0.58751985  0.90561563  0.87530190     0.12600
H419        H  0.66546490  0.90333462  0.90805444     0.11700
H420        H  0.75222225  0.04403389  0.81831697     0.08800
H421        H  0.82631180  0.04237854  0.85470829     0.12000
H422        H  0.74974083  0.93485506  0.92037125     0.13900
C423        C  0.14432884  0.98821258  0.89734739    -0.01600
C424        C  0.18709176  0.95760364  0.90593107    -0.09600
C425        C  0.23071673  0.95661254  0.88595961    -0.18500
C426        C  0.23364169  0.98720585  0.85667069     0.03900
C427        C  0.19008506  0.01810353  0.84785845     0.18100
C428        C  0.14572742  0.01780138  0.86792320    -0.19900
C429        C  0.19152587  0.04986308  0.81941861    -0.21200
C430        C  0.23549692  0.05237088  0.79989445    -0.19700
C431        C  0.27919759  0.02287869  0.80808944     0.19500
C432        C  0.27853931  0.98909975  0.83623822     0.01600
C433        C  0.32280748  0.95850820  0.84257528    -0.14400
C434        C  0.36627135  0.96261840  0.82254844    -0.12200
C435        C  0.36843690  0.99839243  0.79592164     0.01200
C436        C  0.32358538  0.02709279  0.78827956    -0.24300
H437        H  0.18688461  0.93425365  0.92847924     0.09200
H438        H  0.26190721  0.93233265  0.89457814     0.12700
H439        H  0.11304680  0.04210092  0.86130423     0.11400
H440        H  0.15861270  0.07353343  0.81245363     0.12600
H441        H  0.23541415  0.07790453  0.77830492     0.11700
H442        H  0.32499747  0.93052204  0.86266132     0.08800
H443        H  0.39878660  0.93757576  0.82817118     0.12000
H444        H  0.32228445  0.05214886  0.76658347     0.13900
C445        C  0.97514114  0.17287331  0.89045094    -0.01600
C446        C  0.99314531  0.16456182  0.85804060    -0.09600
C447        C  0.99953019  0.20712201  0.83594473    -0.18500
C448        C  0.98812432  0.25973657  0.84562126     0.03900
C449        C  0.96984448  0.26766860  0.87842789     0.18100
C450        C  0.96313064  0.22473910  0.90008329    -0.19900
C451        C  0.95915218  0.31866109  0.88987598    -0.21200
C452        C  0.96683050  0.36238116  0.86964923    -0.19700
C453        C  0.98461737  0.35638793  0.83716124     0.19500
C454        C  0.99494180  0.30493637  0.82442981     0.01600
C455        C  0.01187928  0.30133189  0.79119357    -0.14400
C456        C  0.02024780  0.34680687  0.77210502    -0.12200
C457        C  0.01160070  0.39747103  0.78516752     0.01200
C458        C  0.99270244  0.40179334  0.81751581    -0.24300
H459        H  0.00336042  0.12517986  0.84991157     0.09200
H460        H  0.01428330  0.19780848  0.81166284     0.12700
H461        H  0.94900906  0.23211054  0.92494623     0.11400
H462        H  0.94533876  0.32489477  0.91492443     0.12600
H463        H  0.95884540  0.40129080  0.87956013     0.11700
H464        H  0.01927579  0.26392638  0.77936869     0.08800
H465        H  0.03383594  0.34233727  0.74687150     0.12000
H466        H  0.98582751  0.44070321  0.82779357     0.13900
C467        C  0.00655003  0.58997257  0.78676896    -0.01600
C468        C  0.01471635  0.64115190  0.77441568    -0.09600
C469        C  0.00712833  0.68576632  0.79420584    -0.18500
C470        C  0.99112753  0.68105424  0.82753885     0.03900
C471        C  0.98191134  0.62918412  0.83993891     0.18100
C472        C  0.98892707  0.58438113  0.81942825    -0.19900
C473        C  0.96700758  0.62232149  0.87301472    -0.21200
C474        C  0.96160866  0.66553412  0.89410284    -0.19700
C475        C  0.97033913  0.71701269  0.88266628     0.19500
C476        C  0.98468365  0.72572776  0.84913042     0.01600
C477        C  0.99210154  0.77874767  0.83885105    -0.14400
C478        C  0.98629579  0.82101160  0.86104395    -0.12200
C479        C  0.97317150  0.81222708  0.89432835     0.01200
C480        C  0.96498258  0.75979486  0.90474264    -0.24300
H481        H  0.02786173  0.64677186  0.74917320     0.09200
H482        H  0.01507764  0.72337437  0.78283388     0.12700
H483        H  0.98294323  0.54508537  0.82935155     0.11400
H484        H  0.96004637  0.58311842  0.88279423     0.12600
H485        H  0.95053444  0.65858388  0.91964503     0.11700
H486        H  0.00246847  0.78890610  0.81378154     0.08800
H487        H  0.99290146  0.86076386  0.85212382     0.12000
H488        H  0.95444971  0.75197231  0.93028928     0.13900
C489        C  0.70330058  0.48889044  0.60549072    -0.01600
C490        C  0.74559829  0.45874635  0.59535041    -0.09600
C491        C  0.78922264  0.45427818  0.61510159    -0.18500
C492        C  0.79275224  0.48063924  0.64590174     0.03900
C493        C  0.74952863  0.51045364  0.65657247     0.18100
C494        C  0.70496792  0.51359954  0.63663474    -0.19900
C495        C  0.75178825  0.53823529  0.68658353    -0.21200
C496        C  0.79641953  0.53840439  0.70568018    -0.21900
C497        C  0.83993739  0.51020671  0.69558064     0.19500
C498        C  0.83822063  0.47990739  0.66588383     0.01600
C499        C  0.88253617  0.45100408  0.65712606    -0.14400
C500        C  0.92737788  0.45456735  0.67582313    -0.12200
C501        C  0.93012084  0.48662183  0.70412966     0.01200
C502        C  0.88558752  0.51307293  0.71450745    -0.24300
H503        H  0.74519318  0.43861322  0.57162774     0.09200
H504        H  0.82000422  0.43091453  0.60505367     0.12700
H505        H  0.67257585  0.53714056  0.64467940     0.11400
H506        H  0.71913744  0.56101806  0.69500833     0.12600
H507        H  0.79708906  0.56134165  0.72835410     0.11700
H508        H  0.88409673  0.42557393  0.63575058     0.08800
H509        H  0.96051938  0.43218127  0.66782342     0.12000
H510        H  0.88701243  0.53756223  0.73652631     0.13900
C511        C  0.12432087  0.49648810  0.70498817    -0.01600
C512        C  0.12798210  0.46362983  0.67707901    -0.09600
C513        C  0.17195021  0.46256013  0.65743040    -0.18500
C514        C  0.21541800  0.49326609  0.66542376     0.03900
C515        C  0.21328177  0.52438020  0.69466131     0.18100
C516        C  0.16828716  0.52555920  0.71414688    -0.19900
C517        C  0.25614918  0.55406502  0.70424220    -0.21200
C518        C  0.30077561  0.55404430  0.68514180    -0.19700
C519        C  0.30380822  0.52450636  0.65580756     0.19500
C520        C  0.26098989  0.49370957  0.64561467     0.01600
C521        C  0.26533227  0.46503985  0.61574112    -0.14400
C522        C  0.30953377  0.46746474  0.59655243    -0.12200
C523        C  0.35159725  0.49814517  0.60615713     0.01200
C524        C  0.34892675  0.52605458  0.63625326    -0.24300
H525        H  0.09624243  0.43851309  0.67012035     0.09200
H526        H  0.17068233  0.43666640  0.63628726     0.12700
H527        H  0.16844810  0.54849265  0.73674007     0.11400
H528        H  0.25509623  0.57770670  0.72663177     0.12600
H529        H  0.33299300  0.57768320  0.69323730     0.11700
H530        H  0.23492584  0.44090286  0.60605831     0.08800
H531        H  0.31062181  0.44516277  0.57362174     0.12000
H532        H  0.38105601  0.55027500  0.64383238     0.13900
C533        C  0.52383525  0.32495263  0.61117890    -0.01600
C534        C  0.50060685  0.33277560  0.64213737    -0.09600
C535        C  0.49479578  0.29074143  0.66455329    -0.18500
C536        C  0.51229111  0.23915105  0.65672877     0.03900
C537        C  0.53783410  0.23209694  0.62593658     0.18100
C538        C  0.54338558  0.27460667  0.60371763    -0.19900
C539        C  0.55647785  0.18222828  0.61697762    -0.21200
C540        C  0.54845627  0.13852269  0.63727353    -0.19700
C541        C  0.52178360  0.14342153  0.66722035     0.19500
C542        C  0.50424549  0.19403094  0.67773473     0.01600
C543        C  0.47850783  0.19690172  0.70847108    -0.14400
C544        C  0.46861402  0.15143765  0.72709166    -0.12200
C545        C  0.48362844  0.10107929  0.71596340     0.01200
C546        C  0.51156638  0.09775584  0.68632322    -0.24300
H547        H  0.48524912  0.37115367  0.64863068     0.09200
H548        H  0.47548787  0.29963580  0.68750205     0.12700
H549        H  0.56222439  0.26810771  0.58009382     0.11400
H550        H  0.57649581  0.17671923  0.59368225     0.12600
H551        H  0.56247088  0.10036317  0.62916963     0.11700
H552        H  0.46510134  0.23370766  0.71869597     0.08800
H553        H  0.44888333  0.15604785  0.75051853     0.12000
H554        H  0.52382539  0.05939948  0.67744384     0.13900
C555        C  0.52547190  0.68536301  0.60488994    -0.01600
C556        C  0.54638184  0.73458489  0.59632793    -0.09600
C557        C  0.54019685  0.77875151  0.61684853    -0.18500
C558        C  0.51170789  0.77569104  0.64661458     0.03900
C559        C  0.49059902  0.72569521  0.65526900     0.18100
C560        C  0.49849213  0.68110231  0.63486228    -0.19900
C561        C  0.46035297  0.72083589  0.68375282    -0.21200
C562        C  0.44995732  0.76454405  0.70357350    -0.19700
C563        C  0.47046208  0.81421463  0.69594610     0.19500
C564        C  0.50231368  0.82049620  0.66768959     0.01600
C565        C  0.52318035  0.87134908  0.66190940    -0.14400
C566        C  0.51195982  0.91420086  0.68286293    -0.12200
C567        C  0.47947048  0.90827774  0.71029674     0.01200
C568        C  0.45936435  0.85756776  0.71665236    -0.24300
H569        H  0.56736969  0.73918049  0.57332728     0.09200
H570        H  0.55699569  0.81512442  0.60828896     0.12700
H571        H  0.48145440  0.64356333  0.64155815     0.11400
H572        H  0.44384830  0.68307276  0.69047069     0.12600
H573        H  0.42571029  0.75938672  0.72514479     0.11700
H574        H  0.54852100  0.87920891  0.64140782     0.08800
H575        H  0.52825519  0.95236303  0.67711222     0.12000
H576        H  0.43562607  0.85110672  0.73828153     0.13900
C577        C  0.69763688  0.32545905  0.50111943    -0.01600
C578        C  0.74717937  0.33885398  0.49081531    -0.09600
C579        C  0.78707352  0.30262682  0.49301857    -0.18500
C580        C  0.77875046  0.25140218  0.50577061     0.03900
C581        C  0.72851729  0.23811712  0.51651289     0.18100
C582        C  0.68850794  0.27490460  0.51383417    -0.19900
C583        C  0.71854330  0.18828735  0.53000100    -0.21200
C584        C  0.75745461  0.15113614  0.53299239    -0.19700
C585        C  0.80701582  0.16267308  0.52205519     0.19500
C586        C  0.81835684  0.21284399  0.50806419     0.01600
C587        C  0.86855995  0.22177674  0.49626246    -0.14400
C588        C  0.90524055  0.18196093  0.49725570    -0.12200
C589        C  0.89396958  0.13269388  0.51117305     0.01200
C590        C  0.84513630  0.12383976  0.52437221    -0.24300
H591        H  0.75533776  0.37773823  0.48094126     0.09200
H592        H  0.82396721  0.31627201  0.48478556     0.12700
H593        H  0.65043704  0.26448304  0.52231258     0.11400
H594        H  0.68038985  0.17799968  0.53834407     0.12600
H595        H  0.74854237  0.11282125  0.54347555     0.11700
H596        H  0.88042980  0.25843578  0.48516342     0.08800
H597        H  0.94262462  0.18953688  0.48664200     0.12000
H598        H  0.83642817  0.08600697  0.53562918     0.13900
C599        C  0.15537008  0.13940221  0.50985674    -0.01600
C600        C  0.14562138  0.18803510  0.49469748    -0.09600
C601        C  0.18291978  0.22726377  0.49422885    -0.18500
C602        C  0.23182059  0.21840548  0.50837623     0.03900
C603        C  0.24125357  0.16890175  0.52386924     0.18100
C604        C  0.20265385  0.13065301  0.52528380    -0.19900
C605        C  0.28962379  0.15717706  0.53689692    -0.21200
C606        C  0.32938880  0.19332407  0.53431589    -0.19700
C607        C  0.32129177  0.24261383  0.51948310     0.19500
C608        C  0.27206947  0.25627399  0.50693310     0.01600
C609        C  0.26527646  0.30726746  0.49344460    -0.14400
C610        C  0.30572934  0.34281947  0.49202023    -0.12200
C611        C  0.35443886  0.32894459  0.50374155     0.01200
C612        C  0.36205861  0.27859171  0.51733979    -0.24300
H613        H  0.10931485  0.19521186  0.48245002     0.09200
H614        H  0.17279686  0.26326564  0.48158272     0.12700
H615        H  0.21002270  0.09295718  0.53717168     0.11400
H616        H  0.29704324  0.11934068  0.54854907     0.12600
H617        H  0.36667411  0.18274402  0.54412619     0.11700
H618        H  0.22905408  0.32129012  0.48414792     0.08800
H619        H  0.29873491  0.38150881  0.48144887     0.12000
H620        H  0.39945324  0.26777145  0.52691514     0.13900
C621        C  0.16565191  0.87058494  0.48641214    -0.01600
C622        C  0.16232510  0.82806554  0.46447808    -0.09600
C623        C  0.20074318  0.78986674  0.46354785    -0.18500
C624        C  0.24399716  0.79335545  0.48461178     0.03900
C625        C  0.24773220  0.83765871  0.50611690     0.18100
C626        C  0.20853661  0.87540536  0.50700524    -0.19900
C627        C  0.29023054  0.84375187  0.52689516    -0.21200
C628        C  0.32909947  0.80629501  0.52712452    -0.19700
C629        C  0.32596573  0.76153755  0.50692819     0.19500
C630        C  0.28333199  0.75428839  0.48540368     0.01600
C631        C  0.28140508  0.70763745  0.46618886    -0.14400
C632        C  0.31959102  0.66942718  0.46881551    -0.12200
C633        C  0.36129013  0.67693519  0.49001427     0.01200
C634        C  0.36481564  0.72336237  0.50860467    -0.24300
H635        H  0.12948892  0.82419054  0.44822072     0.09200
H636        H  0.19535281  0.75821521  0.44608618     0.12700
H637        H  0.21095255  0.90839892  0.52407533     0.11400
H638        H  0.29333159  0.87763164  0.54318129     0.12600
H639        H  0.36145424  0.81195917  0.54359396     0.11700
H640        H  0.25052431  0.69891993  0.44936384     0.08800
H641        H  0.31667029  0.63384305  0.45402715     0.12000
H642        H  0.39706305  0.72894216  0.52521250     0.13900
C643        C  0.89951281  0.85985641  0.49725305    -0.01600
C644        C  0.90343348  0.81697349  0.47561508    -0.09600
C645        C  0.86605955  0.77783535  0.47531776    -0.18500
C646        C  0.82289642  0.78102234  0.49642062     0.03900
C647        C  0.81873120  0.82527440  0.51791962     0.18100
C648        C  0.85739947  0.86350680  0.51862397    -0.19900
C649        C  0.77549075  0.83173894  0.53800799    -0.21200
C650        C  0.73544623  0.79578620  0.53655461    -0.19700
C651        C  0.73860950  0.75156206  0.51589212     0.19500
C652        C  0.78309707  0.74266053  0.49630857     0.01600
C653        C  0.78595667  0.69554982  0.47763895    -0.14400
C654        C  0.74576942  0.65955455  0.47778567    -0.12200
C655        C  0.70131111  0.66963284  0.49605629     0.01200
C656        C  0.69776502  0.71572982  0.51498089    -0.24300
H657        H  0.93539123  0.81409357  0.45857908     0.09200
H658        H  0.87133105  0.74651567  0.45758308     0.12700
H659        H  0.85434163  0.89688685  0.53535459     0.11400
H660        H  0.77210600  0.86547212  0.55439361     0.12600
H661        H  0.70194302  0.80239996  0.55187175     0.11700
H662        H  0.81907060  0.68480703  0.46320568     0.08800
H663        H  0.74934000  0.62369448  0.46331588     0.12000
H664        H  0.66378747  0.72287593  0.52979753     0.13900
C665        C  0.12188021  0.49559150  0.29442881    -0.01600
C666        C  0.16650094  0.51872670  0.28139689    -0.09600
C667        C  0.21309595  0.51669407  0.29854636    -0.18500
C668        C  0.21740463  0.49001525  0.32922987     0.03900
C669        C  0.17310887  0.46379816  0.34142030     0.18100
C670        C  0.12651042  0.46622828  0.32392007    -0.19900
C671        C  0.17543429  0.43524050  0.37112059    -0.21200
C672        C  0.22033289  0.43353894  0.38960335    -0.19700
C673        C  0.26409715  0.46045998  0.37893316     0.19500
C674        C  0.26379123  0.48837135  0.34832328     0.01600
C675        C  0.30961183  0.51419746  0.33870082    -0.14400
C676        C  0.35298910  0.51403764  0.35930081    -0.12200
C677        C  0.35199033  0.48858676  0.39015666     0.01200
C678        C  0.30775456  0.46075961  0.39929842    -0.24300
H679        H  0.16581034  0.53828802  0.25753598     0.09200
H680        H  0.24518448  0.53608320  0.28701090     0.12700
H681        H  0.09394400  0.44450251  0.33332483     0.11400
H682        H  0.14201863  0.41465780  0.38040292     0.12600
H683        H  0.22053642  0.41175890  0.41276994     0.11700
H684        H  0.31273499  0.53584053  0.31576450     0.08800
H685        H  0.38672280  0.53566366  0.35163869     0.12000
H686        H  0.30690669  0.44006072  0.42286772     0.13900
C687        C  0.69969141  0.48247999  0.38893857    -0.01600
C688        C  0.74087422  0.45018974  0.39818963    -0.09600
C689        C  0.78391229  0.44507207  0.37809323    -0.18500
C690        C  0.78803749  0.47309912  0.34791096     0.03900
C691        C  0.74607568  0.50555454  0.33816538     0.18100
C692        C  0.70185369  0.50911283  0.35835216    -0.19900
C693        C  0.74957657  0.53577499  0.30908333    -0.21200
C694        C  0.79463691  0.53639005  0.29044730    -0.19700
C695        C  0.83701902  0.50589269  0.29997410     0.19500
C696        C  0.83345288  0.47216375  0.32809453     0.01600
C697        C  0.87619435  0.44007482  0.33580538    -0.14400
C698        C  0.92208440  0.44517941  0.31852034    -0.12200
C699        C  0.92693495  0.48154756  0.29257903     0.01200
C700        C  0.88357897  0.51012993  0.28236137    -0.24300
H701        H  0.74007067  0.42896009  0.42154080     0.09200
H702        H  0.81408168  0.42029548  0.38761368     0.12700
H703        H  0.67038568  0.53461752  0.35111176     0.11400
H704        H  0.71786881  0.56052043  0.30130616     0.12600
H705        H  0.79666927  0.56166082  0.26877640     0.11700
H706        H  0.87572230  0.41108780  0.35536451     0.08800
H707        H  0.95437050  0.42086982  0.32581383     0.12000
H708        H  0.88675510  0.53754669  0.26179509     0.13900
C709        C  0.48951011  0.90370763  0.28734822    -0.01600
C710        C  0.49012321  0.85396274  0.27230824    -0.09600
C711        C  0.50307506  0.80884267  0.29037337    -0.18500
C712        C  0.51467564  0.81198461  0.32455275     0.03900
C713        C  0.51648825  0.86312310  0.33928895     0.18100
C714        C  0.50449952  0.90842293  0.32051968    -0.19900
C715        C  0.52840824  0.86854677  0.37294091    -0.21200
C716        C  0.53651930  0.82426802  0.39261654    -0.19700
C717        C  0.53252935  0.77345820  0.37919726     0.19500
C718        C  0.52250174  0.76630869  0.34490514     0.01600
C719        C  0.51862261  0.71376684  0.33294513    -0.14400
C720        C  0.52197842  0.67041358  0.35453346    -0.12200
C721        C  0.52991170  0.67797414  0.38857385     0.01200
C722        C  0.53670044  0.72978065  0.40033452    -0.24300
H723        H  0.47971990  0.84993366  0.24640901     0.09200
H724        H  0.50239936  0.77198395  0.27707486     0.12700
H725        H  0.50436355  0.94703434  0.33211866     0.11400
H726        H  0.53027437  0.90725924  0.38431318     0.12600
H727        H  0.54452408  0.82979677  0.41877951     0.11700
H728        H  0.51162626  0.70489772  0.30720431     0.08800
H729        H  0.51715271  0.63100626  0.34462126     0.12000
H730        H  0.54378100  0.73664783  0.42648293     0.13900
C731        C  0.48235097  0.09316939  0.28976271    -0.01600
C732        C  0.47659667  0.14359322  0.27598912    -0.09600
C733        C  0.48561914  0.18868395  0.29484816    -0.18500
C734        C  0.50037127  0.18472050  0.32847742     0.03900
C735        C  0.50741335  0.13322994  0.34207150     0.18100
C736        C  0.49863258  0.08807081  0.32260254    -0.19900
C737        C  0.52245418  0.12712046  0.37514463    -0.21200
C738        C  0.53059653  0.17097577  0.39510624    -0.19700
C739        C  0.52322014  0.22202146  0.38262724     0.19500
C740        C  0.50792373  0.22983922  0.34917421     0.01600
C741        C  0.50008207  0.28241212  0.33817935    -0.14400
C742        C  0.50658906  0.32518935  0.35968365    -0.12200
C743        C  0.52117746  0.31709538  0.39274392     0.01200
C744        C  0.53011760  0.26528934  0.40377742    -0.24300
H745        H  0.46438175  0.14809875  0.25043989     0.09200
H746        H  0.48027065  0.22596008  0.28243489     0.12700
H747        H  0.50270684  0.04899505  0.33329851     0.11400
H748        H  0.52783354  0.08812258  0.38568843     0.12600
H749        H  0.54214840  0.16488507  0.42066203     0.11700
H750        H  0.48804914  0.29181934  0.31329864     0.08800
H751        H  0.49901954  0.36466236  0.35053340     0.12000
H752        H  0.54169632  0.25830520  0.42924857     0.13900
loop_ 
_geom_bond_atom_site_label_1 
_geom_bond_atom_site_label_2 
_geom_bond_distance 
_geom_bond_site_symmetry_2 
_ccdc_geom_bond_type 
O1          Zr37   2.456       .  S
O1           C12   1.296       .  A
O2          Zr36   2.469       .  S
O2           C13   1.298       .  A
O3           Zr9   2.444       .  S
O3           C14   1.293       .  A
O4           Zr9   2.440       .  S
O4           C15   1.292       .  A
O5          Zr39   2.423       .  S
O5           C15   1.290       .  A
O6          Zr38   2.407       .  S
O6           C14   1.287       .  A
O7           Zr9   2.438       .  S
O7           C13   1.293       .  A
O8           Zr9   2.425       .  S
O8           C12   1.291       .  A
Zr9          O10   2.337       .  S
Zr9          O11   2.342       .  S
Zr9          O19   2.343       .  S
Zr9          O17   2.330       .  S
O10         Zr36   2.352       .  S
O10         Zr39   2.335       .  S
O11         Zr37   2.355       .  S
O11         Zr38   2.330       .  S
C12         C743   1.483       .  S
C13         C533   1.492       .  S
C14         C577   1.474       .  S
C15         C611   1.477       .  S
H16          O17   0.965       .  S
O17         Zr36   2.357       .  S
O17         Zr38   2.337       .  S
H18          O19   0.965       .  S
O19         Zr37   2.354       .  S
O19         Zr39   2.330       .  S
O20         Zr36   2.475       .  S
O20          C43   1.299       .  A
O21         Zr37   2.470       .  S
O21          C44   1.299       .  A
O22         Zr38   2.425       .  S
O22          C45   1.291       .  A
O23         Zr39   2.427       .  S
O23          C46   1.292       .  A
O24         Zr39   2.434       .  S
O24          C47   1.292       .  A
O25         Zr38   2.438       .  S
O25          C48   1.293       .  A
O26         Zr40   2.437       .  S
O26          C49   1.291       .  A
O27         Zr40   2.428       .  S
O27          C50   1.290       .  A
O28         Zr38   2.416       .  S
O28          C49   1.288       .  A
O29         Zr39   2.429       .  S
O29          C50   1.291       .  A
O30         Zr36   2.478       .  S
O30          C45   1.300       .  A
O31         Zr37   2.463       .  S
O31          C48   1.296       .  A
O32         Zr37   2.468       .  S
O32          C47   1.297       .  A
O33         Zr36   2.477       .  S
O33          C46   1.299       .  A
O34         Zr40   2.433       .  S
O34          C43   1.292       .  A
O35         Zr40   2.415       .  S
O35          C44   1.289       .  A
Zr36         O42   2.355       .  S
Zr36         O54   2.352       .  S
Zr37         O41   2.347       .  S
Zr37         O52   2.353       .  S
Zr38         O42   2.340       .  S
Zr38         O52   2.329       .  S
Zr39         O41   2.333       .  S
Zr39         O54   2.340       .  S
Zr40         O41   2.344       .  S
Zr40         O42   2.332       .  S
Zr40         O54   2.338       .  S
Zr40         O52   2.341       .  S
C43         C555   1.492       .  S
C44         C721   1.489       .  S
C45         C489   1.488       .  S
C46         C523   1.488       .  S
C47         C677   1.487       .  S
C48         C687   1.486       .  S
C49         C655   1.467       .  S
C50         C633   1.466       .  S
H51          O52   0.964       .  S
H53          O54   0.968       .  S
N55          C60   1.350       .  A
N55          C59   1.351   1_455  A
N55          H87   1.042       .  S
N56          C63   1.347       .  A
N56          C64   1.349   1_565  A
N57          C62   1.349       .  A
N57          C61   1.348   1_455  A
N57          H88   1.042       .  S
N58          C65   1.347   1_545  A
N58          C66   1.348       .  A
C59          C67   1.386   1_655  A
C59          C75   1.410       .  A
C60          C76   1.411       .  A
C60          C68   1.387       .  A
C61          C69   1.387       .  A
C61          C78   1.410       .  A
C62          C77   1.410       .  A
C62          C70   1.387       .  A
C63          C75   1.405       .  A
C63          C71   1.385       .  A
C64          C78   1.411       .  A
C64          C72   1.388       .  A
C65          C73   1.385       .  A
C65          C76   1.406       .  A
C66          C74   1.387       .  A
C66          C77   1.409       .  A
C67          C68   1.376       .  A
C67          H79   1.082   1_455  S
C68          H80   1.082       .  S
C69          C70   1.377   1_655  A
C69          H81   1.082       .  S
C70          H82   1.082       .  S
C71          C72   1.374   1_565  A
C71          H83   1.082       .  S
C72          H84   1.082       .  S
C73          C74   1.373   1_565  A
C73          H85   1.082       .  S
C74          H86   1.082       .  S
C75         C643   1.482       .  S
C76         C621   1.481       .  S
C77         C599   1.482       .  S
C78         C589   1.486       .  S
O89        Zr125   2.475       .  S
O89         C100   1.300       .  A
O90        Zr124   2.472       .  S
O90         C101   1.299       .  A
O91         Zr97   2.426   1_456  S
O91         C102   1.288   1_556  A
O92         Zr97   2.410       .  S
O92         C103   1.287       .  A
O93        Zr127   2.433       .  S
O93         C103   1.291       .  A
O94        Zr126   2.421       .  S
O94         C102   1.288       .  A
O95         Zr97   2.425       .  S
O95         C101   1.291       .  A
O96         Zr97   2.433   1_556  S
O96         C100   1.292       .  A
Zr97         O98   2.340       .  S
Zr97         O99   2.326   1_654  S
Zr97        O107   2.335   1_554  S
Zr97        O105   2.340   1_655  S
O98        Zr124   2.352       .  S
O98        Zr127   2.334       .  S
O99        Zr125   2.350   1_455  S
O99        Zr126   2.333   1_556  S
C100        C479   1.498       .  S
C101        C281   1.488       .  S
C102        C325   1.461   1_554  S
C103        C335   1.466       .  S
H104        O105   0.966       .  S
O105       Zr124   2.360   1_455  S
O105       Zr126   2.333       .  S
H106        O107   0.965       .  S
O107       Zr125   2.355       .  S
O107       Zr127   2.342   1_556  S
O108       Zr124   2.473   1_545  S
O108        C131   1.299       .  A
O109       Zr125   2.469   1_545  S
O109        C132   1.298       .  A
O110       Zr126   2.438       .  S
O110        C133   1.292       .  A
O111       Zr127   2.439       .  S
O111        C134   1.294   1_565  A
O112       Zr127   2.442   1_556  S
O112        C135   1.294       .  A
O113       Zr126   2.429   1_556  S
O113        C136   1.292       .  A
O114       Zr128   2.437   1_455  S
O114        C137   1.292       .  A
O115       Zr128   2.445   1_556  S
O115        C138   1.293   1_556  A
O116       Zr126   2.416   1_545  S
O116        C137   1.288       .  A
O117       Zr127   2.427   1_545  S
O117        C138   1.290       .  A
O118       Zr124   2.463   1_455  S
O118        C133   1.296       .  A
O119       Zr125   2.472   1_455  S
O119        C136   1.299       .  A
O120       Zr125   2.479       .  S
O120        C135   1.300       .  A
O121       Zr124   2.479       .  S
O121        C134   1.299   1_565  A
O122       Zr128   2.419       .  S
O122        C131   1.290       .  A
O123       Zr128   2.439   1_556  S
O123        C132   1.293       .  A
Zr124       O130   2.349   1_665  S
Zr124       O142   2.355   1_565  S
Zr125       O129   2.357   1_565  S
Zr125       O140   2.353   1_665  S
Zr126       O130   2.330   1_565  S
Zr126       O140   2.345   1_564  S
Zr127       O129   2.345   1_564  S
Zr127       O142   2.340   1_565  S
Zr128       O129   2.337   1_554  S
Zr128       O130   2.342   1_655  S
Zr128       O142   2.343       .  S
Zr128       O140   2.334   1_654  S
C131        C291   1.490       .  S
C132        C445   1.496       .  S
C133        C225   1.484       .  S
C134        C247   1.494       .  S
C135        C413   1.492       .  S
C136        C423   1.484       .  S
C137        C391   1.468       .  S
C138        C369   1.476       .  S
H139        O140   0.965       .  S
H141        O142   0.966       .  S
N143        C148   1.351       .  A
N143        C147   1.349       .  A
N143        H175   1.040   1_556  S
N144        C151   1.348       .  A
N144        C152   1.351       .  A
N145        C150   1.351       .  A
N145        C149   1.349       .  A
N145        H176   1.042   1_556  S
N146        C153   1.348   1_556  A
N146        C154   1.348   1_556  A
C147        C155   1.387       .  A
C147        C163   1.410       .  A
C148        C164   1.412       .  A
C148        C156   1.387       .  A
C149        C157   1.386       .  A
C149        C166   1.408       .  A
C150        C165   1.411       .  A
C150        C158   1.387       .  A
C151        C163   1.409       .  A
C151        C159   1.386   1_556  A
C152        C166   1.411       .  A
C152        C160   1.387   1_556  A
C153        C161   1.386       .  A
C153        C164   1.408   1_554  A
C154        C162   1.386       .  A
C154        C165   1.408   1_554  A
C155        C156   1.378       .  A
C155        H167   1.082       .  S
C156        H168   1.082       .  S
C157        C158   1.376       .  A
C157        H169   1.082       .  S
C158        H170   1.082       .  S
C159        C160   1.373       .  A
C159        H171   1.082       .  S
C160        H172   1.082       .  S
C161        C162   1.371       .  A
C161        H173   1.082       .  S
C162        H174   1.082       .  S
C163        C313   1.474       .  S
C164        C347   1.481       .  S
C165        C357   1.484       .  S
C166        C379   1.485       .  S
C177        C178   1.528       .  S
C177        C183   1.543       .  S
C177        C181   1.538       .  S
C177        C665   1.534       .  S
C178        H185   1.087       .  S
C178        C179   1.364       .  D
C179        C180   1.542   1_455  S
C179        C303   1.480       .  S
C180        C184   1.539       .  S
C180        C182   1.548   1_655  S
C180        H186   1.110       .  S
C181        H187   1.084       .  S
C181        C182   1.370       .  D
C182        C269   1.496       .  S
C183        H188   1.085       .  S
C183        C184   1.371   1_455  D
C184        C699   1.487       .  S
C189        C190   1.533       .  S
C189        C195   1.544   1_565  S
C189        C193   1.536   1_565  S
C189        C237   1.538       .  S
C190        H197   1.086       .  S
C190        C191   1.367       .  D
C191        C192   1.540       .  S
C191        C709   1.480       .  S
C192        C196   1.545   1_565  S
C192        C194   1.540   1_565  S
C192        H198   1.110   1_565  S
C193        H199   1.082       .  S
C193        C194   1.361       .  D
C194        C731   1.477       .  S
C195        H200   1.085       .  S
C195        C196   1.376       .  D
C196        C259   1.499       .  S
C201        C202   1.534       .  S
C201        C207   1.541       .  S
C201        C205   1.532       .  S
C201        C511   1.539       .  S
C202        H209   1.083       .  S
C202        C203   1.367       .  D
C203        C204   1.555   1_455  S
C203        C467   1.498       .  S
C204        C208   1.549       .  S
C204        C206   1.554   1_655  S
C204        H210   1.110       .  S
C205        H211   1.086       .  S
C205        C206   1.368       .  D
C206        C457   1.495       .  S
C207        H212   1.086       .  S
C207        C208   1.371   1_455  D
C208        C501   1.498       .  S
C213        C214   1.536       .  S
C213        C219   1.541       .  S
C213        C217   1.529   1_545  S
C213        C435   1.539   1_545  S
C214        H221   1.082       .  S
C214        C215   1.370       .  D
C215        C216   1.556       .  S
C215        C545   1.503       .  S
C216        C220   1.547   1_545  S
C216        C218   1.561   1_545  S
C216        H222   1.109       .  S
C217        H223   1.085       .  S
C217        C218   1.370       .  D
C218        C567   1.509       .  S
C219        H224   1.086   1_545  S
C219        C220   1.369   1_545  D
C220        C401   1.499       .  S
C225        C226   1.401   1_565  A
C225        C230   1.402       .  A
C226        C227   1.405       .  A
C226        H239   1.083       .  S
C227        C228   1.420   1_545  A
C227        H240   1.078       .  S
C228        C234   1.436       .  A
C228        C229   1.421       .  A
C229        C231   1.399       .  A
C229        C230   1.403       .  A
C230        H241   1.085       .  S
C231        C232   1.389       .  A
C231        H242   1.084       .  S
C232        C233   1.398       .  A
C232        H243   1.084       .  S
C233        C234   1.423       .  A
C233        C238   1.408       .  A
C234        C235   1.411   1_565  A
C235        C236   1.400       .  A
C235        H244   1.078       .  S
C236        C237   1.411   1_545  A
C236        H245   1.078       .  S
C237        C238   1.404       .  A
C238        H246   1.084       .  S
C247        C248   1.402       .  A
C247        C252   1.408   1_545  A
C248        C249   1.393       .  A
C248        H261   1.082       .  S
C249        C250   1.412       .  A
C249        H262   1.076       .  S
C250        C256   1.435       .  A
C250        C251   1.424   1_545  A
C251        C253   1.403       .  A
C251        C252   1.420       .  A
C252        H263   1.084       .  S
C253        C254   1.398       .  A
C253        H264   1.084       .  S
C254        C255   1.403       .  A
C254        H265   1.084       .  S
C255        C256   1.422   1_565  A
C255        C260   1.417       .  A
C256        C257   1.415       .  A
C257        C258   1.395       .  A
C257        H266   1.076       .  S
C258        C259   1.401       .  A
C258        H267   1.083       .  S
C259        C260   1.408   1_545  A
C260        H268   1.084       .  S
C269        C270   1.400   1_455  A
C269        C274   1.407       .  A
C270        C271   1.402       .  A
C270        H283   1.082       .  S
C271        C272   1.418       .  A
C271        H284   1.077       .  S
C272        C278   1.434       .  A
C272        C273   1.420   1_655  A
C273        C275   1.401       .  A
C273        C274   1.406       .  A
C274        H285   1.083       .  S
C275        C276   1.391       .  A
C275        H286   1.084       .  S
C276        C277   1.399   1_455  A
C276        H287   1.084       .  S
C277        C278   1.425       .  A
C277        C282   1.411       .  A
C278        C279   1.412       .  A
C279        C280   1.396       .  A
C279        H288   1.077       .  S
C280        C281   1.404       .  A
C280        H289   1.084       .  S
C281        C282   1.402       .  A
C282        H290   1.084       .  S
C291        C292   1.401       .  A
C291        C296   1.407       .  A
C292        C293   1.402       .  A
C292        H305   1.083       .  S
C293        C294   1.418       .  A
C293        H306   1.077   1_655  S
C294        C300   1.432       .  A
C294        C295   1.420       .  A
C295        C297   1.401       .  A
C295        C296   1.403       .  A
C296        H307   1.084       .  S
C297        C298   1.390       .  A
C297        H308   1.084       .  S
C298        C299   1.398       .  A
C298        H309   1.084       .  S
C299        C300   1.426       .  A
C299        C304   1.408       .  A
C300        C301   1.413   1_655  A
C301        C302   1.395       .  A
C301        H310   1.077       .  S
C302        C303   1.401       .  A
C302        H311   1.084       .  S
C303        C304   1.397   1_455  A
C304        H312   1.085       .  S
C313        C314   1.397       .  A
C313        C318   1.394   1_556  A
C314        C315   1.396       .  A
C314        H327   1.083       .  S
C315        C316   1.416       .  A
C315        H328   1.078       .  S
C316        C322   1.425       .  A
C316        C317   1.423   1_556  A
C317        C319   1.398       .  A
C317        C318   1.397       .  A
C318        H329   1.085       .  S
C319        C320   1.386       .  A
C319        H330   1.084       .  S
C320        C321   1.397       .  A
C320        H331   1.084       .  S
C321        C322   1.423   1_554  A
C321        C326   1.398       .  A
C322        C323   1.415       .  A
C323        C324   1.395       .  A
C323        H332   1.078       .  S
C324        C325   1.398       .  A
C324        H333   1.084       .  S
C325        C326   1.395   1_556  A
C326        H334   1.085       .  S
C335        C336   1.399   1_554  A
C335        C340   1.398       .  A
C336        C337   1.390       .  A
C336        H349   1.084       .  S
C337        C338   1.413   1_556  A
C337        H350   1.077       .  S
C338        C344   1.423       .  A
C338        C339   1.422       .  A
C339        C341   1.399       .  A
C339        C340   1.401       .  A
C340        H351   1.085       .  S
C341        C342   1.390       .  A
C341        H352   1.084       .  S
C342        C343   1.399       .  A
C342        H353   1.084       .  S
C343        C344   1.423       .  A
C343        C348   1.403       .  A
C344        C345   1.413   1_554  A
C345        C346   1.390       .  A
C345        H354   1.077       .  S
C346        C347   1.398       .  A
C346        H355   1.084       .  S
C347        C348   1.399   1_556  A
C348        H356   1.085       .  S
C357        C358   1.398   1_556  A
C357        C362   1.400       .  A
C358        C359   1.394       .  A
C358        H371   1.084       .  S
C359        C360   1.416       .  A
C359        H372   1.077       .  S
C360        C366   1.427       .  A
C360        C361   1.421   1_554  A
C361        C363   1.399       .  A
C361        C362   1.400       .  A
C362        H373   1.085       .  S
C363        C364   1.389       .  A
C363        H374   1.084       .  S
C364        C365   1.399       .  A
C364        H375   1.084       .  S
C365        C366   1.424   1_556  A
C365        C370   1.405       .  A
C366        C367   1.413       .  A
C367        C368   1.392       .  A
C367        H376   1.077       .  S
C368        C369   1.400       .  A
C368        H377   1.082       .  S
C369        C370   1.400   1_554  A
C370        H378   1.085       .  S
C379        C380   1.400   1_556  A
C379        C384   1.398       .  A
C380        C381   1.394       .  A
C380        H393   1.084       .  S
C381        C382   1.414   1_554  A
C381        H394   1.077       .  S
C382        C388   1.426   1_556  A
C382        C383   1.423       .  A
C383        C385   1.398       .  A
C383        C384   1.400       .  A
C384        H395   1.085       .  S
C385        C386   1.386       .  A
C385        H396   1.084       .  S
C386        C387   1.398       .  A
C386        H397   1.084       .  S
C387        C388   1.423   1_556  A
C387        C392   1.399       .  A
C388        C389   1.415       .  A
C389        C390   1.395       .  A
C389        H398   1.077       .  S
C390        C391   1.400       .  A
C390        H399   1.084       .  S
C391        C392   1.397   1_554  A
C392        H400   1.085       .  S
C401        C402   1.403   1_565  A
C401        C406   1.402       .  A
C402        C403   1.410       .  A
C402        H415   1.083       .  S
C403        C404   1.419   1_545  A
C403        H416   1.078       .  S
C404        C410   1.442       .  A
C404        C405   1.423       .  A
C405        C407   1.398       .  A
C405        C406   1.405       .  A
C406        H417   1.084       .  S
C407        C408   1.387       .  A
C407        H418   1.084       .  S
C408        C409   1.398       .  A
C408        H419   1.084       .  S
C409        C410   1.423       .  A
C409        C414   1.406       .  A
C410        C411   1.420   1_565  A
C411        C412   1.410       .  A
C411        H420   1.078       .  S
C412        C413   1.403   1_545  A
C412        H421   1.083       .  S
C413        C414   1.402       .  A
C414        H422   1.085       .  S
C423        C424   1.401       .  A
C423        C428   1.403   1_565  A
C424        C425   1.396       .  A
C424        H437   1.084       .  S
C425        C426   1.414       .  A
C425        H438   1.077       .  S
C426        C432   1.434       .  A
C426        C427   1.424   1_565  A
C427        C429   1.400       .  A
C427        C428   1.413       .  A
C428        H439   1.084       .  S
C429        C430   1.394       .  A
C429        H440   1.084       .  S
C430        C431   1.402       .  A
C430        H441   1.084       .  S
C431        C432   1.421   1_545  A
C431        C436   1.412       .  A
C432        C433   1.414       .  A
C433        C434   1.397       .  A
C433        H442   1.077       .  S
C434        C435   1.405       .  A
C434        H443   1.083       .  S
C435        C436   1.411   1_565  A
C436        H444   1.081       .  S
C445        C446   1.405       .  A
C445        C450   1.405       .  A
C446        C447   1.408       .  A
C446        H459   1.083   1_655  S
C447        C448   1.420       .  A
C447        H460   1.078   1_655  S
C448        C454   1.439       .  A
C448        C449   1.420       .  A
C449        C451   1.400       .  A
C449        C450   1.405       .  A
C450        H461   1.084       .  S
C451        C452   1.389       .  A
C451        H462   1.084       .  S
C452        C453   1.398       .  A
C452        H463   1.084       .  S
C453        C454   1.426       .  A
C453        C458   1.412       .  A
C454        C455   1.414   1_655  A
C455        C456   1.402       .  A
C455        H464   1.078       .  S
C456        C457   1.406       .  A
C456        H465   1.083       .  S
C457        C458   1.399   1_455  A
C458        H466   1.084       .  S
C467        C468   1.405       .  A
C467        C472   1.402   1_455  A
C468        C469   1.398       .  A
C468        H481   1.083       .  S
C469        C470   1.412   1_455  A
C469        H482   1.077       .  S
C470        C476   1.438       .  A
C470        C471   1.426       .  A
C471        C473   1.400       .  A
C471        C472   1.416       .  A
C472        H483   1.084       .  S
C473        C474   1.393       .  A
C473        H484   1.084       .  S
C474        C475   1.402       .  A
C474        H485   1.084       .  S
C475        C476   1.420       .  A
C475        C480   1.410       .  A
C476        C477   1.419       .  A
C477        C478   1.404       .  A
C477        H486   1.077   1_655  S
C478        C479   1.403       .  A
C478        H487   1.083       .  S
C479        C480   1.409       .  A
C480        H488   1.084       .  S
C489        C490   1.403       .  A
C489        C494   1.404       .  A
C490        C491   1.394       .  A
C490        H503   1.084       .  S
C491        C492   1.413       .  A
C491        H504   1.077       .  S
C492        C498   1.434       .  A
C492        C493   1.424       .  A
C493        C495   1.401       .  A
C493        C494   1.416       .  A
C494        H505   1.084       .  S
C495        C496   1.396       .  A
C495        H506   1.084       .  S
C496        C497   1.402       .  A
C496        H507   1.084       .  S
C497        C498   1.423       .  A
C497        C502   1.417       .  A
C498        C499   1.413       .  A
C499        C500   1.395       .  A
C499        H508   1.077       .  S
C500        C501   1.403       .  A
C500        H509   1.083       .  S
C501        C502   1.405       .  A
C502        H510   1.084       .  S
C511        C512   1.403       .  A
C511        C516   1.414       .  A
C512        C513   1.396       .  A
C512        H525   1.083       .  S
C513        C514   1.414       .  A
C513        H526   1.076       .  S
C514        C520   1.434       .  A
C514        C515   1.419       .  A
C515        C517   1.404       .  A
C515        C516   1.414       .  A
C516        H527   1.081       .  S
C517        C518   1.397       .  A
C517        H528   1.084       .  S
C518        C519   1.402       .  A
C518        H529   1.084       .  S
C519        C520   1.425       .  A
C519        C524   1.419       .  A
C520        C521   1.411       .  A
C521        C522   1.391       .  A
C521        H530   1.076       .  S
C522        C523   1.401       .  A
C522        H531   1.084       .  S
C523        C524   1.406       .  A
C524        H532   1.084       .  S
C533        C534   1.402       .  A
C533        C538   1.406       .  A
C534        C535   1.404       .  A
C534        H547   1.083       .  S
C535        C536   1.419       .  A
C535        H548   1.078       .  S
C536        C542   1.438       .  A
C536        C537   1.421       .  A
C537        C539   1.401       .  A
C537        C538   1.408       .  A
C538        H549   1.085       .  S
C539        C540   1.392       .  A
C539        H550   1.084       .  S
C540        C541   1.399       .  A
C540        H551   1.084       .  S
C541        C542   1.425       .  A
C541        C546   1.415       .  A
C542        C543   1.412       .  A
C543        C544   1.399       .  A
C543        H552   1.078       .  S
C544        C545   1.408       .  A
C544        H553   1.082       .  S
C545        C546   1.403       .  A
C546        H554   1.084       .  S
C555        C556   1.405       .  A
C555        C560   1.403       .  A
C556        C557   1.401       .  A
C556        H569   1.084       .  S
C557        C558   1.414       .  A
C557        H570   1.078       .  S
C558        C564   1.439       .  A
C558        C559   1.425       .  A
C559        C561   1.399       .  A
C559        C560   1.413       .  A
C560        H571   1.085       .  S
C561        C562   1.392       .  A
C561        H572   1.084       .  S
C562        C563   1.402       .  A
C562        H573   1.084       .  S
C563        C564   1.420       .  A
C563        C568   1.410       .  A
C564        C565   1.419       .  A
C565        C566   1.406       .  A
C565        H574   1.078       .  S
C566        C567   1.402       .  A
C566        H575   1.082       .  S
C567        C568   1.412       .  A
C568        H576   1.083       .  S
C577        C578   1.401       .  A
C577        C582   1.400       .  A
C578        C579   1.390       .  A
C578        H591   1.084       .  S
C579        C580   1.412       .  A
C579        H592   1.077       .  S
C580        C586   1.424       .  A
C580        C581   1.423       .  A
C581        C583   1.399       .  A
C581        C582   1.403       .  A
C582        H593   1.085       .  S
C583        C584   1.389       .  A
C583        H594   1.084       .  S
C584        C585   1.399       .  A
C584        H595   1.084       .  S
C585        C586   1.422       .  A
C585        C590   1.401       .  A
C586        C587   1.414       .  A
C587        C588   1.390       .  A
C587        H596   1.077       .  S
C588        C589   1.400       .  A
C588        H597   1.084       .  S
C589        C590   1.400       .  A
C590        H598   1.084       .  S
C599        C600   1.398       .  A
C599        C604   1.399       .  A
C600        C601   1.393       .  A
C600        H613   1.084       .  S
C601        C602   1.416       .  A
C601        H614   1.077       .  S
C602        C608   1.425       .  A
C602        C603   1.421       .  A
C603        C605   1.399       .  A
C603        C604   1.401       .  A
C604        H615   1.085       .  S
C605        C606   1.390       .  A
C605        H616   1.084       .  S
C606        C607   1.399       .  A
C606        H617   1.084       .  S
C607        C608   1.423       .  A
C607        C612   1.405       .  A
C608        C609   1.412       .  A
C609        C610   1.391       .  A
C609        H618   1.077       .  S
C610        C611   1.401       .  A
C610        H619   1.083       .  S
C611        C612   1.402       .  A
C612        H620   1.085       .  S
C621        C622   1.397       .  A
C621        C626   1.399       .  A
C622        C623   1.393       .  A
C622        H635   1.084       .  S
C623        C624   1.416       .  A
C623        H636   1.077       .  S
C624        C630   1.425       .  A
C624        C625   1.422       .  A
C625        C627   1.399       .  A
C625        C626   1.400       .  A
C626        H637   1.085       .  S
C627        C628   1.388       .  A
C627        H638   1.084       .  S
C628        C629   1.399       .  A
C628        H639   1.084       .  S
C629        C630   1.423       .  A
C629        C634   1.402       .  A
C630        C631   1.414       .  A
C631        C632   1.392       .  A
C631        H640   1.077       .  S
C632        C633   1.397       .  A
C632        H641   1.084       .  S
C633        C634   1.398       .  A
C634        H642   1.085       .  S
C643        C644   1.397       .  A
C643        C648   1.400       .  A
C644        C645   1.392       .  A
C644        H657   1.083       .  S
C645        C646   1.415       .  A
C645        H658   1.077       .  S
C646        C652   1.424       .  A
C646        C647   1.421       .  A
C647        C649   1.399       .  A
C647        C648   1.401       .  A
C648        H659   1.085       .  S
C649        C650   1.389       .  A
C649        H660   1.084       .  S
C650        C651   1.399       .  A
C650        H661   1.084       .  S
C651        C652   1.423       .  A
C651        C656   1.402       .  A
C652        C653   1.413       .  A
C653        C654   1.391       .  A
C653        H662   1.077       .  S
C654        C655   1.399       .  A
C654        H663   1.084       .  S
C655        C656   1.398       .  A
C656        H664   1.085       .  S
C665        C666   1.407       .  A
C665        C670   1.407       .  A
C666        C667   1.400       .  A
C666        H679   1.082       .  S
C667        C668   1.413       .  A
C667        H680   1.078       .  S
C668        C674   1.435       .  A
C668        C669   1.422       .  A
C669        C671   1.399       .  A
C669        C670   1.407       .  A
C670        H681   1.082       .  S
C671        C672   1.389       .  A
C671        H682   1.084       .  S
C672        C673   1.400       .  A
C672        H683   1.084       .  S
C673        C674   1.421       .  A
C673        C678   1.405       .  A
C674        C675   1.419       .  A
C675        C676   1.404       .  A
C675        H684   1.078       .  S
C676        C677   1.401       .  A
C676        H685   1.083       .  S
C677        C678   1.404       .  A
C678        H686   1.085       .  S
C687        C688   1.400       .  A
C687        C692   1.406       .  A
C688        C689   1.392       .  A
C688        H701   1.084       .  S
C689        C690   1.412       .  A
C689        H702   1.077       .  S
C690        C696   1.430       .  A
C690        C691   1.424       .  A
C691        C693   1.403       .  A
C691        C692   1.416       .  A
C692        H703   1.084       .  S
C693        C694   1.397       .  A
C693        H704   1.084       .  S
C694        C695   1.402       .  A
C694        H705   1.084       .  S
C695        C696   1.422       .  A
C695        C700   1.413       .  A
C696        C697   1.414       .  A
C697        C698   1.393       .  A
C697        H706   1.077       .  S
C698        C699   1.399       .  A
C698        H707   1.084       .  S
C699        C700   1.404       .  A
C700        H708   1.084       .  S
C709        C710   1.399       .  A
C709        C714   1.398       .  A
C710        C711   1.396       .  A
C710        H723   1.083       .  S
C711        C712   1.413       .  A
C711        H724   1.077       .  S
C712        C718   1.432       .  A
C712        C713   1.426       .  A
C713        C715   1.398       .  A
C713        C714   1.409       .  A
C714        H725   1.084       .  S
C715        C716   1.389       .  A
C715        H726   1.084       .  S
C716        C717   1.401       .  A
C716        H727   1.084       .  S
C717        C718   1.418       .  A
C717        C722   1.400       .  A
C718        C719   1.420       .  A
C719        C720   1.403       .  A
C719        H728   1.077       .  S
C720        C721   1.401       .  A
C720        H729   1.083       .  S
C721        C722   1.407       .  A
C722        H730   1.084       .  S
C731        C732   1.400       .  A
C731        C736   1.396       .  A
C732        C733   1.393       .  A
C732        H745   1.084       .  S
C733        C734   1.412       .  A
C733        H746   1.077       .  S
C734        C740   1.429       .  A
C734        C735   1.426       .  A
C735        C737   1.398       .  A
C735        C736   1.407       .  A
C736        H747   1.084       .  S
C737        C738   1.389       .  A
C737        H748   1.084       .  S
C738        C739   1.400       .  A
C738        H749   1.084       .  S
C739        C740   1.420       .  A
C739        C744   1.401       .  A
C740        C741   1.418       .  A
C741        C742   1.399       .  A
C741        H750   1.077       .  S
C742        C743   1.401       .  A
C742        H751   1.083       .  S
C743        C744   1.404       .  A
C744        H752   1.084       .  S
