geometry optimzed in LAMMPS
_audit_creation_date              2020-12-01 
_audit_creation_method            'lammps2cif' 
_symmetry_space_group_name_H-M    'P1' 
_symmetry_Int_Tables_number       1 
_symmetry_cell_setting            triclinic 
loop_ 
_symmetry_equiv_pos_as_xyz 
  x,y,z 
_cell_length_a                    56.22757676 
_cell_length_b                    56.41964354658611 
_cell_length_c                    56.45781852016527 
_cell_angle_alpha                 89.76125255893446 
_cell_angle_beta                  90.13281664431767 
_cell_angle_gamma                 89.91465112016583 
loop_ 
_atom_site_label 
_atom_site_type_symbol 
_atom_site_fract_x 
_atom_site_fract_y 
_atom_site_fract_z 
_atom_site_charge 
C1          C  0.09605732  0.10097436  0.09412091     0.87100
C2          C  0.11340286  0.08723236  0.11075635    -0.53200
C3          C  0.12793052  0.10142223  0.12401635     0.10000
C4          C  0.12387220  0.12796095  0.12007153     0.21000
C5          C  0.08278714  0.11719092  0.11181554    -0.53900
C6          C  0.09724676  0.13162535  0.12485584     0.10100
C7          C  0.11237864  0.11769817  0.07979415    -0.53400
C8          C  0.12691474  0.13160767  0.09331741     0.10700
H9          H  0.11361689  0.06810290  0.11279892     0.15200
H10         H  0.13558833  0.13942424  0.13099683     0.00900
H11         H  0.06375553  0.11695767  0.11446631     0.15500
H12         H  0.11258339  0.11823175  0.06056508     0.15300
C13         C  0.88552679  0.09740767  0.88354209     0.87100
C14         C  0.86887578  0.11477244  0.89681158    -0.53200
C15         C  0.85496147  0.12853435  0.88236320     0.10000
C16         C  0.85949197  0.12468065  0.85586295     0.21000
C17         C  0.86950849  0.08390079  0.86601689    -0.53900
C18         C  0.85590147  0.09804448  0.85175349     0.10100
C19         C  0.90005867  0.11447013  0.86734844    -0.53400
C20         C  0.88633827  0.12857287  0.85289467     0.10700
H21         H  0.86815360  0.11616022  0.91594060     0.15200
H22         H  0.84837748  0.13610124  0.84416626     0.00900
H23         H  0.86888582  0.06468094  0.86513306     0.15500
H24         H  0.91927252  0.11604024  0.86762077     0.15300
C25         C  0.88515380  0.88536632  0.10371687     0.87100
C26         C  0.89963596  0.86927463  0.12094302    -0.53200
C27         C  0.88602384  0.85637575  0.13624781     0.10000
C28         C  0.85920346  0.85994463  0.13301290     0.21000
C29         C  0.86860921  0.86721706  0.09145878    -0.53900
C30         C  0.85469437  0.85439187  0.10670975     0.10100
C31         C  0.86887151  0.89995642  0.12015632    -0.53400
C32         C  0.85542938  0.88673438  0.13540101     0.10700
H33         H  0.91878670  0.86717162  0.12082806     0.15200
H34         H  0.84819891  0.84920869  0.14535916     0.00900
H35         H  0.86802091  0.86463650  0.07243026     0.15500
H36         H  0.86797142  0.91918404  0.11961031     0.15300
C37         C  0.10032113  0.88613868  0.88347164     0.87100
C38         C  0.11663212  0.90102188  0.86679432    -0.53200
C39         C  0.13180606  0.88782193  0.85327273     0.10000
C40         C  0.12938812  0.86108330  0.85702751     0.21000
C41         C  0.08779285  0.86928774  0.86578035    -0.53900
C42         C  0.10298081  0.85584780  0.85248496     0.10100
C43         C  0.11791756  0.87029753  0.89749347    -0.53400
C44         C  0.13303791  0.85735823  0.88369078     0.10700
H45         H  0.11587659  0.92012086  0.86482103     0.15200
H46         H  0.14165565  0.85043529  0.84589419     0.00900
H47         H  0.06867326  0.86816994  0.86371509     0.15500
H48         H  0.11862078  0.86978422  0.91671413     0.15300
C49         C  0.99020519  0.98884484  0.99163785    -0.01900
N50         N  0.68757790  0.73825308  0.58570539    -0.26700
N51         N  0.70918097  0.74033722  0.59465099    -0.34600
C52         C  0.71698613  0.76256571  0.59133809     0.01600
C53         C  0.69940720  0.77537711  0.57996956     0.07700
C54         C  0.68098134  0.75937467  0.57647809    -0.05400
H55         H  0.73500119  0.76834332  0.59479130     0.08300
H56         H  0.66492995  0.76232736  0.56628090     0.09500
Cu57       Cu  0.73029771  0.71163516  0.60248768     0.44200
Cu58       Cu  0.67124411  0.70510394  0.58345108     0.42000
Cu59       Cu  0.71413698  0.65723384  0.57426000     0.43900
N60         N  0.75453232  0.68983549  0.58638427    -0.34100
N61         N  0.74892484  0.67099050  0.57371363    -0.28300
C62         C  0.76775892  0.66547761  0.55987801    -0.04400
C63         C  0.78584327  0.68168953  0.56435779     0.07800
C64         C  0.77668012  0.69675365  0.58113883     0.01600
H65         H  0.76763595  0.65198643  0.54632086     0.09200
H66         H  0.78459856  0.71313183  0.58716830     0.08300
N67         N  0.67784670  0.65162194  0.58164069    -0.35500
N68         N  0.66253043  0.66912033  0.58522721    -0.27700
C69         C  0.64144106  0.65989734  0.59179977    -0.02900
C70         C  0.64333678  0.63547400  0.59209228     0.05700
C71         C  0.66668074  0.63080752  0.58570800     0.03800
H72         H  0.62604748  0.67025348  0.59678206     0.08900
H73         H  0.67518938  0.61360834  0.58511881     0.07700
N74         N  0.54426610  0.73435441  0.68324248    -0.26700
N75         N  0.52726774  0.73384169  0.69934156    -0.34600
C76         C  0.52087722  0.75606970  0.70479929     0.01600
C77         C  0.53458113  0.77150479  0.69168720     0.07700
C78         C  0.54924776  0.75720137  0.67807909    -0.05400
H79         H  0.50900437  0.76068684  0.71911974     0.08300
H80         H  0.56360567  0.76295785  0.66671788     0.09500
Cu81       Cu  0.51958735  0.70429432  0.71929159     0.44200
Cu82       Cu  0.56144729  0.70324872  0.67279752     0.42000
Cu83       Cu  0.56041955  0.65577653  0.71812412     0.43900
N84         N  0.52652419  0.68352588  0.74849577    -0.34100
N85         N  0.54288077  0.66669356  0.74927598    -0.28300
C86         C  0.54633856  0.66051749  0.77223615    -0.04400
C87         C  0.53142568  0.67433447  0.78629156     0.07800
C88         C  0.51913361  0.68845935  0.77048981     0.01600
H89         H  0.55919167  0.64753681  0.77822510     0.09200
H90         H  0.50704051  0.70272001  0.77484823     0.08300
N91         N  0.57246185  0.65124902  0.68297641    -0.35500
N92         N  0.57277780  0.66844118  0.66687819    -0.27700
C93         C  0.58043575  0.65955659  0.64610432    -0.02900
C94         C  0.58509261  0.63567880  0.64907920     0.05700
C95         C  0.57998723  0.63100347  0.67266874     0.03800
H96         H  0.58224410  0.66971275  0.62991217     0.08900
H97         H  0.58139433  0.61405368  0.68159829     0.07700
N98         N  0.40125552  0.75652553  0.29414898    -0.26700
N99         N  0.38720244  0.75997521  0.27565626    -0.34600
C100        C  0.39160015  0.78137244  0.26616408     0.01600
C101        C  0.40906678  0.79227153  0.27937536     0.07700
C102        C  0.41492538  0.77597745  0.29698679    -0.05400
H103        H  0.38423526  0.78762656  0.24954695     0.08300
H104        H  0.42934182  0.77735446  0.30961796     0.09500
Cu105      Cu  0.36988959  0.73311954  0.25826913     0.44200
Cu106      Cu  0.40356422  0.72336890  0.31093344     0.42000
Cu107      Cu  0.39893027  0.67769894  0.26672720     0.43900
N108        N  0.38081226  0.71245855  0.23055692    -0.34100
N109        N  0.39395857  0.69320833  0.23328507    -0.28300
C110        C  0.40582145  0.68926101  0.21290616    -0.04400
C111        C  0.39970571  0.70692126  0.19673709     0.07800
C112        C  0.38384720  0.72118652  0.20865339     0.01600
H113        H  0.41984679  0.67627796  0.21095851     0.09200
H114        H  0.37766023  0.73847472  0.20297251     0.08300
N115        N  0.39933845  0.67050080  0.30319581    -0.35500
N116        N  0.40100673  0.68723107  0.31949066    -0.27700
C117        C  0.39820356  0.67723422  0.34107702    -0.02900
C118        C  0.39493278  0.65304681  0.33829800     0.05700
C119        C  0.39541429  0.64952771  0.31403340     0.03800
H120        H  0.39703077  0.68703846  0.35746342     0.08900
H121        H  0.39168809  0.63314467  0.30487058     0.07700
N122        N  0.68779911  0.43503504  0.23779896    -0.26700
N123        N  0.69751669  0.45631263  0.23908370    -0.34600
C124        C  0.70305782  0.46391048  0.21725535     0.01600
C125        C  0.69639779  0.44678547  0.20127420     0.07700
C126        C  0.68687816  0.42854958  0.21481130    -0.05400
H127        H  0.71305887  0.47984595  0.21346259     0.08300
H128        H  0.68098343  0.41143260  0.20856493     0.09500
Cu129      Cu  0.71062925  0.47072248  0.26978678     0.44200
Cu130      Cu  0.67930823  0.41575063  0.26836212     0.42000
Cu131      Cu  0.71691363  0.43132241  0.31838509     0.43900
N132        N  0.74126025  0.46887418  0.28951939    -0.34100
N133        N  0.74492889  0.45277224  0.30618581    -0.28300
C134        C  0.76865125  0.45057768  0.30954518    -0.04400
C135        C  0.78022681  0.46618416  0.29428504     0.07800
C136        C  0.76219187  0.47732890  0.28193428     0.01600
H137        H  0.77688351  0.43692628  0.32030082     0.09200
H138        H  0.76427115  0.48840574  0.26638275     0.08300
N139        N  0.68515140  0.41188758  0.32171734    -0.35500
N140        N  0.67223851  0.40523811  0.30324627    -0.27700
C141        C  0.65313797  0.39306247  0.31099059    -0.02900
C142        C  0.65373695  0.39230340  0.33547163     0.05700
C143        C  0.67420592  0.40450605  0.34170913     0.03800
H144        H  0.63925355  0.38615048  0.29967086     0.08900
H145        H  0.68057997  0.40787409  0.35947272     0.07700
O146        O  0.45458363  0.71944459  0.99105685    -0.72300
O147        O  0.52431235  0.71571511  0.01278723    -0.73300
O148        O  0.47964894  0.72275547  0.03508200    -0.61900
O149        O  0.49910659  0.71003550  0.96909184    -0.70400
O150        O  0.50320332  0.74833026  0.96159685    -0.69900
O151        O  0.48298316  0.76159009  0.02982624    -0.61200
O152        O  0.52703168  0.75436630  0.00585837    -0.73700
O153        O  0.45980637  0.75780450  0.98515129    -0.72500
Cu154      Cu  0.48928663  0.71563747  0.00225030     1.04600
Cu155      Cu  0.49341985  0.75684614  0.99542118     1.04300
C156        C  0.44636550  0.73967073  0.98443600     0.93800
C157        C  0.53646803  0.73496145  0.01258371     0.93000
C158        C  0.47808997  0.74374374  0.04308963     0.85100
C159        C  0.50394345  0.72672219  0.95463678     0.91400
O160        O  0.72254483  0.50191362  0.95630620    -0.72300
O161        O  0.72494512  0.48447551  0.02376534    -0.73300
O162        O  0.72680924  0.52840374  0.99877481    -0.61900
O163        O  0.72311212  0.45799909  0.98136526    -0.70400
O164        O  0.76255117  0.45759998  0.97974802    -0.69900
O165        O  0.76607280  0.52534635  0.99666661    -0.61200
O166        O  0.76438462  0.48250990  0.02325914    -0.73700
O167        O  0.76158337  0.50073896  0.95280984    -0.72500
Cu168      Cu  0.72299869  0.49331574  0.99005848     1.04600
Cu169      Cu  0.76503164  0.49155016  0.98799748     1.04300
C170        C  0.74100156  0.50411922  0.94348453     0.93800
C171        C  0.74454641  0.48039350  0.03427496     0.93000
C172        C  0.74756194  0.53765914  0.00067755     0.85100
C173        C  0.74275954  0.44682353  0.97828434     0.91400
N174        N  0.80792956  0.73992870  0.05019615    -0.26700
N175        N  0.79342351  0.74311685  0.03200468    -0.34600
C176        C  0.78638076  0.72202225  0.02377079     0.01600
C177        C  0.79674096  0.70458126  0.03741953     0.07700
C178        C  0.81052564  0.71642417  0.05398610    -0.05400
H179        H  0.77290587  0.71959363  0.01028668     0.08300
H180        H  0.82058708  0.70863960  0.06840804     0.09500
Cu181      Cu  0.77586314  0.77422035  0.02483714     0.44200
Cu182      Cu  0.81951209  0.76845502  0.07049171     0.42000
Cu183      Cu  0.77003776  0.80925303  0.07603421     0.43900
N184        N  0.74332101  0.78543298  0.03672252    -0.34100
N185        N  0.74037695  0.79633519  0.05717725    -0.28300
C186        C  0.71724113  0.79440697  0.06345299    -0.04400
C187        C  0.70546135  0.78123597  0.04623580     0.07800
C188        C  0.72253194  0.77631921  0.02944307     0.01600
H189        H  0.70992309  0.80057078  0.08002809     0.09200
H190        H  0.72050943  0.76484106  0.01426359     0.08300
N191        N  0.80500536  0.81729727  0.08702114    -0.35500
N192        N  0.82303479  0.80233584  0.08472443    -0.27700
C193        C  0.84327757  0.81312690  0.09158843    -0.02900
C194        C  0.83781992  0.83591941  0.09867643     0.05700
C195        C  0.81342526  0.83797919  0.09559781     0.03800
H196        H  0.86076028  0.80510849  0.09105777     0.08900
H197        H  0.80271513  0.85359753  0.09871422     0.07700
N198        N  0.67479332  0.51911452  0.73782661    -0.26700
N199        N  0.69202431  0.50357879  0.73440493    -0.34600
C200        C  0.70140066  0.49722852  0.75534662     0.01600
C201        C  0.68938455  0.50895829  0.77304133     0.07700
C202        C  0.67275200  0.52298174  0.76131700    -0.05400
H203        H  0.71755132  0.48695471  0.75734836     0.08300
H204        H  0.66138763  0.53629857  0.76913466     0.09500
Cu205      Cu  0.70893305  0.49887288  0.70258571     0.44200
Cu206      Cu  0.65967900  0.53773506  0.70954186     0.42000
Cu207      Cu  0.70819041  0.55282590  0.66993621     0.43900
N208        N  0.73888232  0.51284218  0.68733646    -0.34100
N209        N  0.73942736  0.53412849  0.67750289    -0.28300
C210        C  0.76221097  0.54155750  0.67680845    -0.04400
C211        C  0.77643237  0.52403139  0.68681108     0.07800
C212        C  0.76105063  0.50610499  0.69305567     0.01600
H213        H  0.76775210  0.55905435  0.67121851     0.09200
H214        H  0.76530471  0.49071146  0.70375811     0.08300
N215        N  0.67287676  0.56302280  0.66418014    -0.35500
N216        N  0.65494836  0.55640728  0.67786531    -0.27700
C217        C  0.63439844  0.56393402  0.66800482    -0.02900
C218        C  0.63973432  0.57616732  0.64740553     0.05700
C219        C  0.66422124  0.57532890  0.64556116     0.03800
H220        H  0.61690818  0.56084191  0.67533456     0.08900
H221        H  0.67490590  0.58249719  0.63132632     0.07700
N222        N  0.29864824  0.75128577  0.43294141    -0.26700
N223        N  0.28746617  0.74930251  0.45340859    -0.34600
C224        C  0.27877678  0.77048821  0.45968504     0.01600
C225        C  0.28475885  0.78685688  0.44251487     0.07700
C226        C  0.29736236  0.77408859  0.42567927    -0.05400
H227        H  0.26692350  0.77331060  0.47448639     0.08300
H228        H  0.30325426  0.78036202  0.40855326     0.09500
Cu229      Cu  0.27572461  0.71775090  0.46734490     0.44200
Cu230      Cu  0.31084640  0.72137747  0.41491234     0.42000
Cu231      Cu  0.26974319  0.67258435  0.42510855     0.43900
N232        N  0.24524634  0.69798795  0.46455630    -0.34100
N233        N  0.24146799  0.68289878  0.44713880    -0.28300
C234        C  0.21775115  0.67935049  0.44520990    -0.04400
C235        C  0.20631933  0.69280803  0.46242530     0.07800
C236        C  0.22442326  0.70434379  0.47416710     0.01600
H237        H  0.20935956  0.66966480  0.43097093     0.09200
H238        H  0.22236430  0.71866980  0.48668522     0.08300
N239        N  0.30354637  0.66846817  0.40963169    -0.35500
N240        N  0.31832096  0.68630289  0.40556520    -0.27700
C241        C  0.33878110  0.67766544  0.39655579    -0.02900
C242        C  0.33696863  0.65324722  0.39517097     0.05700
C243        C  0.31440292  0.64804309  0.40350590     0.03800
H244        H  0.35407320  0.68831598  0.39189980     0.08900
H245        H  0.30654509  0.63062967  0.40520045     0.07700
O246        O  0.98576972  0.72463835  0.46118374    -0.72300
O247        O  0.99772346  0.71893129  0.53288043    -0.73300
O248        O  0.95693392  0.71844783  0.50239737    -0.61900
O249        O  0.02613174  0.72225439  0.49119482    -0.70400
O250        O  0.02597856  0.76147671  0.49386659    -0.69900
O251        O  0.95416474  0.75740751  0.50669773    -0.61200
O252        O  0.99642916  0.75812983  0.53435784    -0.73700
O253        O  0.98383170  0.76339039  0.46631054    -0.72500
Cu254      Cu  0.99166309  0.71966730  0.49685379     1.04600
Cu255      Cu  0.99000962  0.76143053  0.50044467     1.04300
C256        C  0.98337480  0.74564691  0.45260832     0.93800
C257        C  0.99890434  0.73829292  0.54475724     0.93000
C258        C  0.94444056  0.73682514  0.50623618     0.85100
C259        C  0.03708383  0.74193093  0.49023394     0.91400
O260        O  0.00039524  0.53047594  0.71955827    -0.72300
O261        O  0.98127974  0.46083598  0.72812785    -0.73300
O262        O  0.95681572  0.50460964  0.72190435    -0.61900
O263        O  0.02489988  0.48629107  0.72354308    -0.70400
O264        O  0.02655371  0.49101610  0.76250951    -0.69900
O265        O  0.95580384  0.50809184  0.76104210    -0.61200
O266        O  0.98260962  0.46607879  0.76697799    -0.73700
O267        O  0.99931776  0.53383227  0.75868102    -0.72500
Cu268      Cu  0.99087076  0.49537830  0.72191887     1.04600
Cu269      Cu  0.99115332  0.49992557  0.76365550     1.04300
C270        C  0.00239688  0.54310854  0.73831269     0.93800
C271        C  0.97874559  0.45274124  0.74925640     0.93000
C272        C  0.94533954  0.50877214  0.74084045     0.85100
C273        C  0.03669844  0.48606348  0.74279485     0.91400
N274        N  0.08625408  0.73286828  0.79599216    -0.26700
N275        N  0.09900757  0.72886973  0.77678444    -0.34600
C276        C  0.09392970  0.70725022  0.76836523     0.01600
C277        C  0.07730373  0.69677238  0.78294297     0.07700
C278        C  0.07268836  0.71357690  0.80030174    -0.05400
H279        H  0.09977065  0.70074655  0.75133368     0.08300
H280        H  0.05889147  0.71274774  0.81359641     0.09500
Cu281      Cu  0.11413688  0.75531775  0.75673187     0.44200
Cu282      Cu  0.08495561  0.76665365  0.81138194     0.42000
Cu283      Cu  0.08549679  0.81096265  0.76523966     0.43900
N284        N  0.10040801  0.77495232  0.72921448    -0.34100
N285        N  0.08733949  0.79417428  0.73234014    -0.28300
C286        C  0.07365608  0.79747679  0.71293107    -0.04400
C287        C  0.07842178  0.77935073  0.69707957     0.07800
C288        C  0.09561329  0.76565273  0.70790386     0.01600
H289        H  0.05964408  0.81056613  0.71147443     0.09200
H290        H  0.10177841  0.74845743  0.70210409     0.08300
N291        N  0.08834629  0.81934093  0.80120168    -0.35500
N292        N  0.08812138  0.80308990  0.81819526    -0.27700
C293        C  0.09219775  0.81379989  0.83914193    -0.02900
C294        C  0.09490553  0.83789934  0.83518146     0.05700
C295        C  0.09261206  0.84073183  0.81091781     0.03800
H296        H  0.09413685  0.80460648  0.85589286     0.08900
H297        H  0.09491649  0.85698901  0.80095847     0.07700
N298        N  0.29561301  0.39666029  0.75690613    -0.26700
N299        N  0.27433239  0.38702395  0.75902172    -0.34600
C300        C  0.26515326  0.39232231  0.78025376     0.01600
C301        C  0.28108749  0.40626468  0.79253960     0.07700
C302        C  0.30036506  0.40869583  0.77710494    -0.05400
H303        H  0.24686495  0.38895046  0.78514873     0.08300
H304        H  0.31541089  0.42038754  0.77927566     0.09500
Cu305      Cu  0.25336612  0.37909966  0.73041827     0.44200
Cu306      Cu  0.31316368  0.39631577  0.72366318     0.42000
Cu307      Cu  0.27030599  0.41289122  0.67937717     0.43900
N308        N  0.23065673  0.40194390  0.71317026    -0.34100
N309        N  0.23691926  0.41605860  0.69551194    -0.28300
C310        C  0.21954443  0.43234300  0.69222550    -0.04400
C311        C  0.20201682  0.42839950  0.70908272     0.07800
C312        C  0.20955049  0.40886088  0.72172927     0.01600
H313        H  0.22004051  0.44647356  0.67922902     0.09200
H314        H  0.20087910  0.40094327  0.73690657     0.08300
N315        N  0.30487273  0.40197044  0.67071803    -0.35500
N316        N  0.32057343  0.39491124  0.68680647    -0.27700
C317        C  0.34005187  0.38661775  0.67541970    -0.02900
C318        C  0.33661669  0.38906367  0.65110036     0.05700
C319        C  0.31406608  0.39874851  0.64889374     0.03800
H320        H  0.35543311  0.37898335  0.68413185     0.08900
H321        H  0.30460732  0.40223051  0.63253448     0.07700
N322        N  0.68275212  0.22371792  0.40114057    -0.26700
N323        N  0.70173879  0.21818263  0.38852592    -0.34600
C324        C  0.70873712  0.19607428  0.39386912     0.01600
C325        C  0.69346884  0.18691783  0.41053988     0.07700
C326        C  0.67715461  0.20489593  0.41492303    -0.05400
H327        H  0.72517499  0.18813694  0.38787267     0.08300
H328        H  0.66345461  0.20490789  0.42834322     0.09500
Cu329      Cu  0.72346855  0.24241317  0.37230380     0.44200
Cu330      Cu  0.66888201  0.25832634  0.40122598     0.42000
Cu331      Cu  0.71738712  0.30020683  0.39471041     0.43900
N332        N  0.75239722  0.26205516  0.38236461    -0.34100
N333        N  0.75042276  0.28287686  0.39278849    -0.28300
C334        C  0.77126685  0.28780690  0.40362810    -0.04400
C335        C  0.78693454  0.26917302  0.39959199     0.07800
C336        C  0.77423493  0.25316764  0.38624348     0.01600
H337        H  0.77418074  0.30278741  0.41516736     0.09200
H338        H  0.77958081  0.23526714  0.38193861     0.08300
N339        N  0.68131055  0.30997391  0.39297607    -0.35500
N340        N  0.66352911  0.29483787  0.39577054    -0.27700
C341        C  0.64276968  0.30643818  0.39217338    -0.02900
C342        C  0.64768469  0.32995669  0.38690919     0.05700
C343        C  0.67227830  0.33143167  0.38729957     0.03800
H344        H  0.62545268  0.29810412  0.39208810     0.08900
H345        H  0.68286243  0.34681927  0.38287616     0.07700
O346        O  0.74999758  0.94893972  0.50910529    -0.72300
O347        O  0.74991976  0.01779385  0.48666975    -0.73300
O348        O  0.75119242  0.99425950  0.53150594    -0.61900
O349        O  0.75027397  0.97254784  0.46431447    -0.70400
O350        O  0.71083953  0.97376759  0.46354281    -0.69900
O351        O  0.71180514  0.99343587  0.53320940    -0.61200
O352        O  0.71058118  0.01757055  0.48858143    -0.73700
O353        O  0.71068797  0.94974942  0.50820539    -0.72500
Cu354      Cu  0.75170862  0.98338522  0.49789559     1.04600
Cu355      Cu  0.70961113  0.98364127  0.49840018     1.04300
C356        C  0.73000539  0.93846699  0.51205429     0.93800
C357        C  0.72993122  0.02847414  0.48415378     0.93000
C358        C  0.73199844  0.99693832  0.54318207     0.85100
C359        C  0.73072824  0.96987671  0.45317843     0.91400
O360        O  0.52545111  0.99428283  0.76196152    -0.72300
O361        O  0.45948517  0.97153601  0.75610553    -0.73300
O362        O  0.50474859  0.94933726  0.75463582    -0.61900
O363        O  0.47982040  0.01717416  0.76142030    -0.70400
O364        O  0.48184882  0.02080844  0.72232972    -0.69900
O365        O  0.50628558  0.95490341  0.71580243    -0.61200
O366        O  0.45983183  0.97572533  0.71709119    -0.73700
O367        O  0.52832352  0.99940490  0.72306797    -0.72500
Cu368      Cu  0.49230406  0.98298290  0.75985840     1.04600
Cu369      Cu  0.49411930  0.98793474  0.71819161     1.04300
C370        C  0.53767666  0.99972309  0.74381627     0.93800
C371        C  0.44893420  0.96998167  0.73620670     0.93000
C372        C  0.50973900  0.94171852  0.73384229     0.85100
C373        C  0.47659376  0.02943369  0.74247464     0.91400
N374        N  0.74267889  0.03937319  0.80549823    -0.26700
N375        N  0.74524839  0.01857794  0.79515786    -0.34600
C376        C  0.72382172  0.01014430  0.78913338     0.01600
C377        C  0.70668463  0.02628213  0.79591846     0.07700
C378        C  0.71929201  0.04473147  0.80626576    -0.05400
H379        H  0.72108660  0.99465076  0.77822960     0.08300
H380        H  0.71232733  0.06170731  0.81173489     0.09500
Cu381      Cu  0.77649306  0.00734436  0.78009276     0.44200
Cu382      Cu  0.77203563  0.06044738  0.81345899     0.42000
Cu383      Cu  0.81935930  0.05230570  0.77052189     0.43900
N384        N  0.79229135  0.01268020  0.74773926    -0.34100
N385        N  0.80668283  0.03060040  0.74315788    -0.28300
C386        C  0.80727834  0.03397700  0.71944735    -0.04400
C387        C  0.79253040  0.01731386  0.70881368     0.07800
C388        C  0.78337902  0.00427184  0.72738137     0.01600
H389        H  0.81570454  0.04891263  0.71083307     0.09200
H390        H  0.76899263  0.99159501  0.72634789     0.08300
N391        N  0.82391415  0.07018124  0.80278609    -0.35500
N392        N  0.80637884  0.07362173  0.81803383    -0.27700
C393        C  0.81498196  0.08474625  0.83729905    -0.02900
C394        C  0.83904465  0.08842029  0.83414824     0.05700
C395        C  0.84419135  0.07887856  0.81216868     0.03800
H396        H  0.80467401  0.08895666  0.85288809     0.08900
H397        H  0.86148875  0.07783428  0.80387917     0.07700
N398        N  0.45291587  0.29459408  0.72646712    -0.26700
N399        N  0.46845831  0.27775867  0.72165281    -0.34600
C400        C  0.47863372  0.27023066  0.74187671     0.01600
C401        C  0.46920136  0.28302377  0.76042829     0.07700
C402        C  0.45273800  0.29819490  0.75003128    -0.05400
H403        H  0.48950006  0.25444477  0.74333848     0.08300
H404        H  0.44002727  0.30929940  0.75913256     0.09500
Cu405      Cu  0.46665795  0.25847426  0.69092871     0.44200
Cu406      Cu  0.42948173  0.30696230  0.70072836     0.42000
Cu407      Cu  0.40826370  0.25933470  0.66403784     0.43900
N408        N  0.44767719  0.22837010  0.68348310    -0.34100
N409        N  0.42533220  0.22800107  0.67607024    -0.28300
C410        C  0.41635632  0.20617901  0.68068254    -0.04400
C411        C  0.43392628  0.19267435  0.69181970     0.07800
C412        C  0.45345724  0.20729590  0.69292190     0.01600
H413        H  0.39801363  0.20113448  0.67789068     0.09200
H414        H  0.46991895  0.20369464  0.70224060     0.08300
N415        N  0.40130266  0.29554060  0.65654136    -0.35500
N416        N  0.40985376  0.31273355  0.66998723    -0.27700
C417        C  0.40433526  0.33387957  0.66027427    -0.02900
C418        C  0.39156998  0.33008170  0.63973683     0.05700
C419        C  0.38967508  0.30555673  0.63800222     0.03800
H420        H  0.40908880  0.35084619  0.66776933     0.08900
H421        H  0.38084188  0.29577110  0.62409965     0.07700
O422        O  0.21727537  0.46098032  0.00232183    -0.72300
O423        O  0.21939578  0.52933786  0.98533095    -0.73300
O424        O  0.21628273  0.48591018  0.95864314    -0.61900
O425        O  0.22215106  0.50377514  0.02882770    -0.70400
O426        O  0.26107887  0.50100399  0.02513153    -0.69900
O427        O  0.25568688  0.48456446  0.95682432    -0.61200
O428        O  0.25873159  0.52801111  0.98242551    -0.73700
O429        O  0.25638515  0.45762193  0.99929464    -0.72500
Cu430      Cu  0.21740805  0.49510131  0.99385344     1.04600
Cu431      Cu  0.25931616  0.49276735  0.99084818     1.04300
C432        C  0.23599947  0.44823852  0.00313189     0.93800
C433        C  0.23915940  0.53967134  0.98157370     0.93000
C434        C  0.23546188  0.48209647  0.94696109     0.85100
C435        C  0.24296577  0.50527843  0.03803066     0.91400
N436        N  0.25612716  0.79833369  0.89435508    -0.26700
N437        N  0.25713567  0.77649197  0.88612091    -0.34600
C438        C  0.27841849  0.76696566  0.89133840     0.01600
C439        C  0.29158556  0.78343446  0.90367136     0.07700
C440        C  0.27701163  0.80331837  0.90506143    -0.05400
H441        H  0.28274448  0.74839715  0.88924265     0.08300
H442        H  0.28049021  0.81932780  0.91493853     0.09500
Cu443      Cu  0.22718698  0.75692469  0.87930381     0.44200
Cu444      Cu  0.22367915  0.81648135  0.89574730     0.42000
Cu445      Cu  0.17932862  0.77558132  0.91732947     0.43900
N446        N  0.20957513  0.73458376  0.90197462    -0.34100
N447        N  0.19390106  0.74145761  0.91798016    -0.28300
C448        C  0.19160098  0.72402786  0.93429627    -0.04400
C449        C  0.20699112  0.70578119  0.92826298     0.07800
C450        C  0.21762645  0.71291575  0.90752712     0.01600
H451        H  0.18058510  0.72506972  0.94994193     0.09200
H452        H  0.23159786  0.70377489  0.89807949     0.08300
N453        N  0.17129368  0.81022939  0.90663676    -0.35500
N454        N  0.18741279  0.82480026  0.89767649    -0.27700
C455        C  0.17629246  0.84419493  0.88907055    -0.02900
C456        C  0.15214378  0.84200942  0.89328683     0.05700
C457        C  0.14958887  0.82023124  0.90436090     0.03800
H458        H  0.18502301  0.85846294  0.87964717     0.08900
H459        H  0.13303977  0.81158200  0.90887997     0.07700
O460        O  0.98677664  0.52906064  0.22184723    -0.72300
O461        O  0.00242901  0.46090460  0.21585074    -0.73300
O462        O  0.95909963  0.48692290  0.22087967    -0.61900
O463        O  0.02996574  0.50296475  0.21887812    -0.70400
O464        O  0.03081292  0.49938142  0.25802165    -0.69900
O465        O  0.96208521  0.48348924  0.25994485    -0.61200
O466        O  0.00455851  0.45643243  0.25479867    -0.73700
O467        O  0.98788295  0.52696200  0.26104193    -0.72500
Cu468      Cu  0.99448131  0.49507088  0.21802133     1.04600
Cu469      Cu  0.99639866  0.49148427  0.25983383     1.04300
C470        C  0.98467680  0.53899916  0.24193975     0.93800
C471        C  0.00636182  0.44784005  0.23386000     0.93000
C472        C  0.94967405  0.48256560  0.24110669     0.85100
C473        C  0.04143612  0.50346056  0.23852903     0.91400
N474        N  0.91294143  0.73839355  0.19602153    -0.26700
N475        N  0.90038101  0.73424120  0.21535980    -0.34600
C476        C  0.90457961  0.71205878  0.22292834     0.01600
C477        C  0.92068981  0.70169698  0.20781239     0.07700
C478        C  0.92562328  0.71878833  0.19081903    -0.05400
H479        H  0.89838971  0.70489794  0.23961592     0.08300
H480        H  0.93866168  0.71764084  0.17680919     0.09500
Cu481      Cu  0.88583805  0.76048626  0.23598266     0.44200
Cu482      Cu  0.91425426  0.77194550  0.18053594     0.42000
Cu483      Cu  0.90838747  0.81795625  0.22501823     0.43900
N484        N  0.89603117  0.78291707  0.26272156    -0.34100
N485        N  0.90687596  0.80331369  0.25885583    -0.28300
C486        C  0.91872405  0.80953936  0.27867476    -0.04400
C487        C  0.91503038  0.79207238  0.29565100     0.07800
C488        C  0.90041427  0.77570570  0.28495513     0.01600
H489        H  0.93068682  0.82447845  0.27993007     0.09200
H490        H  0.89608044  0.75827553  0.29173215     0.08300
N491        N  0.90511224  0.82407244  0.18876483    -0.35500
N492        N  0.90775101  0.80745278  0.17248077    -0.27700
C493        C  0.90246327  0.81674042  0.15108137    -0.02900
C494        C  0.89620171  0.84022326  0.15411951     0.05700
C495        C  0.89787273  0.84424870  0.17816624     0.03800
H496        H  0.90184085  0.80678639  0.13475247     0.08900
H497        H  0.89315804  0.86034577  0.18739810     0.07700
N498        N  0.29920902  0.58235928  0.23438641    -0.26700
N499        N  0.27807669  0.59223294  0.23157029    -0.34600
C500        C  0.26943693  0.58682791  0.21011136     0.01600
C501        C  0.28568835  0.57263222  0.19869262     0.07700
C502        C  0.30458252  0.57024053  0.21449275    -0.05400
H503        H  0.25157637  0.59091657  0.20418329     0.08300
H504        H  0.32040470  0.55958252  0.21220262     0.09500
Cu505      Cu  0.25752274  0.60364729  0.25924482     0.44200
Cu506      Cu  0.31628156  0.58342232  0.26736786     0.42000
Cu507      Cu  0.27159736  0.57360542  0.31277836     0.43900
N508        N  0.23259565  0.58559652  0.27865539    -0.34100
N509        N  0.23780603  0.57218344  0.29718622    -0.28300
C510        C  0.21960338  0.55700001  0.30087769    -0.04400
C511        C  0.20224559  0.56128516  0.28376058     0.07800
C512        C  0.21125611  0.57945312  0.27007811     0.01600
H513        H  0.21995827  0.54264985  0.31362590     0.09200
H514        H  0.20392073  0.58603429  0.25357408     0.08300
N515        N  0.30688973  0.58284134  0.32028963    -0.35500
N516        N  0.32300780  0.58703511  0.30371162    -0.27700
C517        C  0.34305500  0.59496024  0.31415224    -0.02900
C518        C  0.33955289  0.59537192  0.33840526     0.05700
C519        C  0.31641042  0.58775662  0.34166616     0.03800
H520        H  0.35880770  0.60061254  0.30474224     0.08900
H521        H  0.30684781  0.58690489  0.35825403     0.07700
O522        O  0.49944131  0.22461701  0.01534984    -0.72300
O523        O  0.47915169  0.22800570  0.94533343    -0.73300
O524        O  0.52252338  0.22317857  0.97012066    -0.61900
O525        O  0.45552499  0.22697161  0.99060884    -0.70400
O526        O  0.45667835  0.26626469  0.99160069    -0.69900
O527        O  0.52622555  0.26226057  0.97055528    -0.61200
O528        O  0.48185846  0.26694973  0.94749706    -0.73700
O529        O  0.50137974  0.26380708  0.01472167    -0.72500
Cu530      Cu  0.48903596  0.22432402  0.98031804     1.04600
Cu531      Cu  0.49160410  0.26615929  0.98113659     1.04300
C532        C  0.50322573  0.24431209  0.02603332     0.93800
C533        C  0.47793810  0.24849343  0.93531898     0.93000
C534        C  0.53500495  0.24164816  0.96661932     0.85100
C535        C  0.44546788  0.24672072  0.99479209     0.91400
N536        N  0.80067333  0.24077840  0.93933905    -0.26700
N537        N  0.78575152  0.23751755  0.95706854    -0.34600
C538        C  0.77857216  0.25859858  0.96530269     0.01600
C539        C  0.78918320  0.27640776  0.95215511     0.07700
C540        C  0.80312384  0.26435801  0.93568151    -0.05400
H541        H  0.76466891  0.26079920  0.97833481     0.08300
H542        H  0.81245298  0.27191069  0.92076538     0.09500
Cu543      Cu  0.76797996  0.20615308  0.96288006     0.44200
Cu544      Cu  0.81312112  0.21181074  0.91957212     0.42000
Cu545      Cu  0.76783635  0.16607237  0.91412516     0.43900
N546        N  0.73811118  0.18793264  0.95229274    -0.34100
N547        N  0.73710456  0.17504270  0.93282549    -0.28300
C548        C  0.71405077  0.17208814  0.92681125    -0.04400
C549        C  0.70007774  0.18337888  0.94358327     0.07800
C550        C  0.71597398  0.19329427  0.95928473     0.01600
H551        H  0.70799549  0.16407883  0.91050359     0.09200
H552        H  0.71182240  0.20595414  0.97302022     0.08300
N553        N  0.80307717  0.16148802  0.90325370    -0.35500
N554        N  0.81972161  0.17793034  0.90555668    -0.27700
C555        C  0.84073271  0.16877168  0.89848271    -0.02900
C556        C  0.83710076  0.14558076  0.89136612     0.05700
C557        C  0.81305000  0.14159831  0.89454614     0.03800
H558        H  0.85746452  0.17820967  0.89870849     0.08900
H559        H  0.80357781  0.12526203  0.89122138     0.07700
O560        O  0.45867791  0.00255407  0.25043451    -0.72300
O561        O  0.52835429  0.98353012  0.25049831    -0.73300
O562        O  0.50279078  0.02670319  0.25163117    -0.61900
O563        O  0.48421757  0.95912240  0.25107027    -0.70400
O564        O  0.48277086  0.95894319  0.21179106    -0.69900
O565        O  0.50422023  0.02828797  0.21262903    -0.61200
O566        O  0.52698304  0.98326939  0.21120849    -0.73700
O567        O  0.45995615  0.00397816  0.21122013    -0.72500
Cu568      Cu  0.49349015  0.99294135  0.25225217     1.04600
Cu569      Cu  0.49347089  0.99362405  0.21031919     1.04300
C570        C  0.44849183  0.00642557  0.23047310     0.93800
C571        C  0.53849258  0.98048174  0.23044968     0.93000
C572        C  0.50687851  0.03844319  0.23274607     0.85100
C573        C  0.48049540  0.94821903  0.23174092     0.91400
N574        N  0.79387006  0.93731492  0.24824161    -0.26700
N575        N  0.78314861  0.95809720  0.24592226    -0.34600
C576        C  0.77383963  0.96466228  0.26676411     0.01600
C577        C  0.77857448  0.94725809  0.28328039     0.07700
C578        C  0.79161003  0.93020982  0.27108069    -0.05400
H579        H  0.76302868  0.98032022  0.26931468     0.08300
H580        H  0.79791453  0.91343802  0.27802332     0.09500
Cu581      Cu  0.77406319  0.97351292  0.21410419     0.44200
Cu582      Cu  0.80835955  0.91942084  0.21859445     0.42000
Cu583      Cu  0.77432817  0.93471591  0.16596757     0.43900
N584        N  0.74588173  0.97115317  0.19106777    -0.34100
N585        N  0.74484096  0.95485478  0.17440027    -0.28300
C586        C  0.72188572  0.95085109  0.16888418    -0.04400
C587        C  0.70798145  0.96541796  0.18285796     0.07800
C588        C  0.72377129  0.97816888  0.19647114     0.01600
H589        H  0.71574329  0.93654101  0.15774899     0.09200
H590        H  0.71935189  0.98880978  0.21175017     0.08300
N591        N  0.80617136  0.91636367  0.16485216    -0.35500
N592        N  0.81845377  0.90963593  0.18377803    -0.27700
C593        C  0.83788858  0.89761854  0.17634274    -0.02900
C594        C  0.83782985  0.89732302  0.15171063     0.05700
C595        C  0.81753292  0.90938922  0.14514147     0.03800
H596        H  0.85136985  0.89021087  0.18791341     0.08900
H597        H  0.81134073  0.91272950  0.12727547     0.07700
N598        N  0.57458665  0.30117181  0.22273659    -0.26700
N599        N  0.58948766  0.28393751  0.21712517    -0.34600
C600        C  0.58544240  0.27693246  0.19483371     0.01600
C601        C  0.56710073  0.29019952  0.18557671     0.07700
C602        C  0.56038032  0.30539485  0.20377279    -0.05400
H603        H  0.59342839  0.26144341  0.18686434     0.08300
H604        H  0.54536106  0.31740039  0.20372610     0.09500
Cu605      Cu  0.60672046  0.26292336  0.24136919     0.44200
Cu606      Cu  0.57361770  0.31480931  0.25753174     0.42000
Cu607      Cu  0.58582417  0.26742437  0.29949344     0.43900
N608        N  0.59604968  0.23364409  0.26020152    -0.34100
N609        N  0.58651397  0.23512236  0.28147959    -0.28300
C610        C  0.57522914  0.21457076  0.28628301    -0.04400
C611        C  0.57744887  0.19976192  0.26676165     0.07800
C612        C  0.59102658  0.21241183  0.25078787     0.01600
H613        H  0.56521018  0.21120705  0.30224784     0.09200
H614        H  0.59481176  0.20750757  0.23267290     0.08300
N615        N  0.58705853  0.30337624  0.30847368    -0.35500
N616        N  0.58190431  0.32085002  0.29355518    -0.27700
C617        C  0.58565171  0.34173315  0.30467325    -0.02900
C618        C  0.59362685  0.33712289  0.32754241     0.05700
C619        C  0.59449129  0.31265906  0.32916151     0.03800
H620        H  0.58398541  0.35895898  0.29634289     0.08900
H621        H  0.60079255  0.30234375  0.34411639     0.07700
O622        O  0.24335549  0.00973054  0.45631485    -0.72300
O623        O  0.25157318  0.98061854  0.52156105    -0.73300
O624        O  0.24831696  0.96287440  0.47496497    -0.61900
O625        O  0.24740370  0.02755714  0.50292297    -0.70400
O626        O  0.20827640  0.02593208  0.50736328    -0.69900
O627        O  0.20903503  0.96028693  0.47829063    -0.61200
O628        O  0.21230943  0.97847467  0.52445544    -0.73700
O629        O  0.20432413  0.00764388  0.46074670    -0.72500
Cu630      Cu  0.24902546  0.99530296  0.48877530     1.04600
Cu631      Cu  0.20712339  0.99305057  0.49280552     1.04300
C632        C  0.22236094  0.01334280  0.44828680     0.93800
C633        C  0.23294441  0.97467114  0.53311242     0.93000
C634        C  0.22908552  0.95114853  0.47271722     0.85100
C635        C  0.22794134  0.03711804  0.50951285     0.91400
N636        N  0.24476819  0.94512227  0.80097921    -0.26700
N637        N  0.24218763  0.96277177  0.78572507    -0.34600
C638        C  0.26357801  0.96943845  0.77767007     0.01600
C639        C  0.28061467  0.95517738  0.78797268     0.07700
C640        C  0.26815906  0.94001415  0.80289767    -0.05400
H641        H  0.26625977  0.98157362  0.76302935     0.08300
H642        H  0.27532371  0.92521445  0.81285722     0.09500
Cu643      Cu  0.21110950  0.96960441  0.76786190     0.44200
Cu644      Cu  0.21538169  0.92635433  0.81376910     0.42000
Cu645      Cu  0.17040365  0.92150552  0.76762805     0.43900
N646        N  0.19469798  0.95794099  0.73754419    -0.34100
N647        N  0.18104780  0.93891599  0.73673717    -0.28300
C648        C  0.17860676  0.93229964  0.71391613    -0.04400
C649        C  0.19129966  0.94807982  0.69994163     0.07800
C650        C  0.20135132  0.96391267  0.71551938     0.01600
H651        H  0.16974534  0.91633520  0.70810846     0.09200
H652        H  0.21441795  0.97735259  0.71135671     0.08300
N653        N  0.16503039  0.91066676  0.80263800    -0.35500
N654        N  0.18132476  0.91254103  0.81951404    -0.27700
C655        C  0.17191576  0.90496102  0.84014678    -0.02900
C656        C  0.14863848  0.89815895  0.83605754     0.05700
C657        C  0.14491338  0.90181560  0.81210981     0.03800
H658        H  0.18130456  0.90446800  0.85689066     0.08900
H659        H  0.12872516  0.89841169  0.80231002     0.07700
O660        O  0.95553785  0.25903480  0.48159000    -0.72300
O661        O  0.02387235  0.26153332  0.49829684    -0.73300
O662        O  0.99839954  0.26079420  0.45496174    -0.61900
O663        O  0.98067375  0.25771214  0.52519056    -0.70400
O664        O  0.98360705  0.21871008  0.52267457    -0.69900
O665        O  0.99988430  0.22146953  0.45482285    -0.61200
O666        O  0.02722609  0.22253847  0.49665835    -0.73700
O667        O  0.95636253  0.21985344  0.48012798    -0.72500
Cu668      Cu  0.98959713  0.26113393  0.49013762     1.04600
Cu669      Cu  0.99184059  0.21928699  0.48865945     1.04300
C670        C  0.94491369  0.23948057  0.47814551     0.93800
C671        C  0.03680716  0.24298106  0.49925356     0.93000
C672        C  0.00202861  0.24119224  0.44408534     0.85100
C673        C  0.97866241  0.23709236  0.53465289     0.91400
N674        N  0.93273480  0.24800776  0.80503031    -0.26700
N675        N  0.95175107  0.24759074  0.79133629    -0.34600
C676        C  0.95853530  0.26979603  0.78633164     0.01600
C677        C  0.94328280  0.28520006  0.79748576     0.07700
C678        C  0.92689679  0.27089578  0.80912514    -0.05400
H679        H  0.97254173  0.27441180  0.77404415     0.08300
H680        H  0.91142102  0.27666394  0.81889272     0.09500
Cu681      Cu  0.96367183  0.21801713  0.77401695     0.44200
Cu682      Cu  0.91571996  0.21633359  0.81460147     0.42000
Cu683      Cu  0.92439922  0.16961113  0.76982109     0.43900
N684        N  0.96061165  0.19833721  0.74375609    -0.34100
N685        N  0.94438438  0.18171470  0.74083440    -0.28300
C686        C  0.94226439  0.17739111  0.71739109    -0.04400
C687        C  0.95829472  0.19179021  0.70527604     0.07800
C688        C  0.96929524  0.20492044  0.72265347     0.01600
H689        H  0.92897306  0.16594500  0.70961920     0.09200
H690        H  0.98061911  0.22017722  0.71995467     0.08300
N691        N  0.91024209  0.16368565  0.80376628    -0.35500
N692        N  0.90686468  0.18052442  0.81974245    -0.27700
C693        C  0.89812589  0.17056307  0.83967554    -0.02900
C694        C  0.89619483  0.14636593  0.83624156     0.05700
C695        C  0.90386053  0.14264983  0.81327446     0.03800
H696        H  0.89365839  0.18020695  0.85558595     0.08900
H697        H  0.90466618  0.12586634  0.80411114     0.07700
N698        N  0.24399072  0.30204436  0.52261160    -0.26700
N699        N  0.24891066  0.28305110  0.50993853    -0.34600
C700        C  0.22890162  0.27489884  0.49986967     0.01600
C701        C  0.21028820  0.28943930  0.50626523     0.07700
C702        C  0.22044391  0.30645457  0.52086183    -0.05400
H703        H  0.22741672  0.25782544  0.49133221     0.08300
H704        H  0.21102141  0.31935719  0.53142593     0.09500
Cu705      Cu  0.27834009  0.26243808  0.51611302     0.44200
Cu706      Cu  0.26921489  0.31615423  0.54599201     0.42000
Cu707      Cu  0.29950781  0.26786240  0.57585140     0.43900
N708        N  0.28350656  0.23393477  0.53820986    -0.34100
N709        N  0.28921831  0.23548015  0.56087846    -0.28300
C710        C  0.28455978  0.21441249  0.57138038    -0.04400
C711        C  0.27541002  0.19918840  0.55434172     0.07800
C712        C  0.27499583  0.21225800  0.53369316     0.01600
H713        H  0.28610946  0.21102525  0.59018631     0.09200
H714        H  0.26718600  0.20700224  0.51698538     0.08300
N715        N  0.30849102  0.30361631  0.58073155    -0.35500
N716        N  0.29819381  0.32117326  0.56888677    -0.27700
C717        C  0.30984533  0.34151511  0.57362293    -0.02900
C718        C  0.32802357  0.33666486  0.58956788     0.05700
C719        C  0.32654802  0.31248565  0.59373669     0.03800
H720        H  0.30557249  0.35856129  0.56583794     0.08900
H721        H  0.33852175  0.30193036  0.60447532     0.07700
N722        N  0.03176650  0.24131317  0.17357087    -0.26700
N723        N  0.01507983  0.23828840  0.18973107    -0.34600
C724        C  0.00755596  0.25953393  0.19734832     0.01600
C725        C  0.02013572  0.27690548  0.18556719     0.07700
C726        C  0.03530602  0.26477528  0.17049088    -0.05400
H727        H  0.99595876  0.26210490  0.21239261     0.08300
H728        H  0.04928538  0.27236240  0.15974697     0.09500
Cu729      Cu  0.01083160  0.20701518  0.20808567     0.44200
Cu730      Cu  0.05205325  0.21282569  0.16136637     0.42000
Cu731      Cu  0.06550675  0.17353375  0.21005471     0.43900
N732        N  0.02507970  0.19331863  0.23877008    -0.34100
N733        N  0.04648972  0.18373842  0.24030718    -0.28300
C734        C  0.05365817  0.18458759  0.26314840    -0.04400
C735        C  0.03570096  0.19503385  0.27652586     0.07800
C736        C  0.01798059  0.20017384  0.26030995     0.01600
H737        H  0.07137323  0.17997752  0.26896498     0.09200
H738        H  0.00207519  0.21047752  0.26354515     0.08300
N739        N  0.07581841  0.16655683  0.17503963    -0.35500
N740        N  0.07012825  0.18071134  0.15712540    -0.27700
C741        C  0.07713600  0.17057246  0.13671630    -0.02900
C742        C  0.08797861  0.14916049  0.14198163     0.05700
C743        C  0.08689693  0.14716762  0.16643062     0.03800
H744        H  0.07426778  0.17808355  0.11927734     0.08900
H745        H  0.09294169  0.13233745  0.17707240     0.07700
N746        N  0.24135288  0.05006603  0.18111357    -0.26700
N747        N  0.23886722  0.03316068  0.19719211    -0.34600
C748        C  0.26032394  0.02493528  0.20358341     0.01600
C749        C  0.27733280  0.03732852  0.19120842     0.07700
C750        C  0.26480250  0.05318055  0.17700739    -0.05400
H751        H  0.26341551  0.01247142  0.21788298     0.08300
H752        H  0.27218019  0.06674196  0.16560069     0.09500
Cu753      Cu  0.20812833  0.02726493  0.21587814     0.44200
Cu754      Cu  0.21189245  0.06891878  0.16831034     0.42000
Cu755      Cu  0.16310173  0.07065823  0.21173263     0.43900
N756        N  0.18667969  0.03588862  0.24398978    -0.34100
N757        N  0.17109714  0.05341070  0.24337731    -0.28300
C758        C  0.16446728  0.05848078  0.26574494    -0.04400
C759        C  0.17631175  0.04307480  0.28091222     0.07800
C760        C  0.19033497  0.02922478  0.26651662     0.01600
H761        H  0.15318202  0.07318928  0.27068192     0.09200
H762        H  0.20394491  0.01685045  0.27219003     0.08300
N763        N  0.15983081  0.08103453  0.17644901    -0.35500
N764        N  0.17730397  0.08061555  0.16073404    -0.27700
C765        C  0.16860030  0.08757928  0.13952906    -0.02900
C766        C  0.14459344  0.09230210  0.14206680     0.05700
C767        C  0.13967589  0.08816660  0.16564882     0.03800
H768        H  0.17893060  0.08893484  0.12343801     0.08900
H769        H  0.12265522  0.09011955  0.17433118     0.07700
N770        N  0.24348275  0.18388844  0.04224565    -0.26700
N771        N  0.24135068  0.19635947  0.02247152    -0.34600
C772        C  0.26274281  0.20432266  0.01574232     0.01600
C773        C  0.27947141  0.19642830  0.03175177     0.07700
C774        C  0.26673778  0.18349036  0.04848770    -0.05400
H775        H  0.26566783  0.21650986  0.00119230     0.08300
H776        H  0.27362854  0.17566809  0.06463194     0.09500
Cu777      Cu  0.20988138  0.20932768  0.00922830     0.44200
Cu778      Cu  0.21322404  0.17155670  0.06035946     0.42000
Cu779      Cu  0.16463970  0.21380322  0.05139597     0.43900
N780        N  0.18985453  0.23950483  0.01262712    -0.34100
N781        N  0.17455164  0.24238859  0.03007564    -0.28300
C782        C  0.17089807  0.26580539  0.03315498    -0.04400
C783        C  0.18473596  0.27804052  0.01684309     0.07800
C784        C  0.19626905  0.26075547  0.00404970     0.01600
H785        H  0.16084989  0.27336003  0.04759837     0.09200
H786        H  0.21084883  0.26352105  0.99187586     0.08300
N787        N  0.16034478  0.18058274  0.06721734    -0.35500
N788        N  0.17785525  0.16522454  0.07084852    -0.27700
C789        C  0.16867927  0.14543024  0.08077240    -0.02900
C790        C  0.14432423  0.14845268  0.08318471     0.05700
C791        C  0.13970402  0.17089883  0.07448063     0.03800
H792        H  0.17888694  0.12983716  0.08551315     0.08900
H793        H  0.12255299  0.17955968  0.07343078     0.07700
C794        C  0.37891323  0.38278118  0.59698272     0.87100
C795        C  0.35915536  0.36807805  0.58413182    -0.53200
C796        C  0.34650854  0.35317090  0.59858932     0.10000
C797        C  0.35412531  0.35416779  0.62465747     0.21000
C798        C  0.36468050  0.39540136  0.61680111    -0.53900
C799        C  0.35212759  0.38052369  0.63146763     0.10100
C800        C  0.39368297  0.36334346  0.60989153    -0.53400
C801        C  0.38079220  0.34865624  0.62438558     0.10700
H802        H  0.35523869  0.36820896  0.56564292     0.15200
H803        H  0.34373552  0.34219022  0.63638776     0.00900
H804        H  0.36461227  0.41450389  0.61900890     0.15500
H805        H  0.41282338  0.36167684  0.60801334     0.15300
C806        C  0.60201032  0.38107290  0.37952014     0.87100
C807        C  0.58868524  0.36797905  0.35930411    -0.53200
C808        C  0.60291512  0.35406019  0.34540894     0.10000
C809        C  0.62945014  0.35543118  0.35186387     0.21000
C810        C  0.61661241  0.36165445  0.39252227    -0.53900
C811        C  0.63090991  0.34837731  0.37811294     0.10100
C812        C  0.62118327  0.39537820  0.36560911    -0.53400
C813        C  0.63542723  0.38196080  0.35131924     0.10700
H814        H  0.56956687  0.36887486  0.35679526     0.15200
H815        H  0.64102111  0.34453515  0.34024791     0.00900
H816        H  0.61603030  0.35905153  0.41157989     0.15500
H817        H  0.62274749  0.41451112  0.36557425     0.15300
C818        C  0.59277609  0.58957393  0.59894887     0.87100
C819        C  0.60831129  0.57433787  0.61608240    -0.53200
C820        C  0.62300705  0.58718252  0.63042665     0.10000
C821        C  0.62064633  0.61406413  0.62721002     0.21000
C822        C  0.57944240  0.60601268  0.61644148    -0.53900
C823        C  0.59402596  0.61898668  0.63091593     0.10100
C824        C  0.61092774  0.60562011  0.58608639    -0.53400
C825        C  0.62524900  0.61847582  0.60077252     0.10700
H826        H  0.60759593  0.55519772  0.61756642     0.15200
H827        H  0.63242995  0.62445238  0.63909802     0.00900
H828        H  0.56021825  0.60704970  0.61757259     0.15500
H829        H  0.61212667  0.60683816  0.56692220     0.15300
C830        C  0.38617081  0.60558783  0.38770817     0.87100
C831        C  0.40004558  0.62261124  0.37080693    -0.53200
C832        C  0.38586124  0.63610499  0.35625882     0.10000
C833        C  0.35920478  0.63193319  0.35986445     0.21000
C834        C  0.36947684  0.62306571  0.40086133    -0.53900
C835        C  0.35504113  0.63628409  0.38633173     0.10100
C836        C  0.36970357  0.59153683  0.37092651    -0.53400
C837        C  0.35578375  0.60523482  0.35647895     0.10700
H838        H  0.41923722  0.62443100  0.37054821     0.15200
H839        H  0.34774017  0.64293731  0.34809747     0.00900
H840        H  0.36955336  0.62571456  0.41976662     0.15500
H841        H  0.36941284  0.57230195  0.37030464     0.15300
C842        C  0.49011789  0.48447739  0.48564505    -0.01900
C843        C  0.44399330  0.51336562  0.43858649    -0.11300
C844        C  0.44699840  0.53764850  0.44248123     0.11300
C845        C  0.46136871  0.54460465  0.46166290    -0.03100
C846        C  0.47330484  0.52709506  0.47524329    -0.05800
C847        C  0.47297803  0.50216157  0.47023898    -0.16600
C848        C  0.45523033  0.49543049  0.45263434     0.02300
C849        C  0.43214854  0.55515025  0.42836611     0.12300
C850        C  0.46369060  0.57066074  0.46819113     0.62900
H851        H  0.48261128  0.53358663  0.49049262     0.12300
C852        C  0.44577837  0.47025211  0.44894193     0.55000
H853        H  0.43165769  0.50865755  0.42464718     0.08100
C854        C  0.43926491  0.56463209  0.40625280    -0.05700
C855        C  0.42426435  0.58117352  0.39445177    -0.06400
C856        C  0.40179477  0.58841339  0.40335781    -0.16000
C857        C  0.39371430  0.57635659  0.42440279    -0.01600
C858        C  0.40954320  0.56111359  0.43686051    -0.09200
C859        C  0.46221846  0.55652279  0.39464461     0.65100
H860        H  0.42977532  0.58756525  0.37730645     0.10600
C861        C  0.36860876  0.57823471  0.43435289     0.63500
H862        H  0.40404085  0.55308662  0.45343067     0.07900
F863        F  0.46308643  0.45534203  0.44070680    -0.19600
F864        F  0.42760462  0.46952595  0.43235350    -0.15800
F865        F  0.43629908  0.46140142  0.46962814    -0.19300
F866        F  0.44182529  0.57937458  0.47515224    -0.22600
F867        F  0.47157861  0.58360400  0.44893057    -0.24100
F868        F  0.47966050  0.57417287  0.48654871    -0.18100
F869        F  0.36291840  0.55835482  0.44765896    -0.20600
F870        F  0.35178224  0.57978000  0.41657113    -0.21800
F871        F  0.36696994  0.59761701  0.44913106    -0.18900
F872        F  0.46617587  0.56796184  0.37326662    -0.19000
F873        F  0.46109829  0.53244422  0.39035743    -0.22900
F874        F  0.48138535  0.56102829  0.40928473    -0.24500
C875        C  0.54205175  0.57004905  0.55496042    -0.11300
C876        C  0.54791475  0.54625328  0.55081316     0.11300
C877        C  0.56934412  0.53729740  0.56050619    -0.03100
C878        C  0.58313223  0.55187335  0.57550449    -0.05800
C879        C  0.57676950  0.57549918  0.58117155    -0.16600
C880        C  0.55667028  0.58525598  0.56868235     0.02300
C881        C  0.53246956  0.53154642  0.53469084     0.12300
C882        C  0.57803522  0.51252655  0.55439630     0.62900
H883        H  0.59976107  0.54486349  0.58194322     0.12300
C884        C  0.54972593  0.61137347  0.56827328     0.55000
H885        H  0.52619560  0.57709951  0.54651602     0.08100
C886        C  0.51401742  0.51704502  0.54322157    -0.05700
C887        C  0.50258682  0.50115186  0.52759080    -0.06400
C888        C  0.50657178  0.50065090  0.50260659    -0.16000
C889        C  0.52509781  0.51668009  0.49409804    -0.01600
C890        C  0.53747902  0.53123136  0.51049977    -0.09200
C891        C  0.50587299  0.51900291  0.56880434     0.65100
H892        H  0.49067700  0.48877585  0.53568661     0.10600
C893        C  0.53394164  0.51830917  0.46845573     0.63500
H894        H  0.55199155  0.54239146  0.50466097     0.07900
F895        F  0.54299963  0.61792155  0.54555182    -0.19600
F896        F  0.56795879  0.62636483  0.57464203    -0.15800
F897        F  0.53061451  0.61492407  0.58321056    -0.19300
F898        F  0.58222373  0.51111981  0.53032825    -0.22600
F899        F  0.56116177  0.49585561  0.56059486    -0.24100
F900        F  0.59894414  0.50681366  0.56609767    -0.18100
F901        F  0.54770927  0.53831650  0.46470894    -0.20600
F902        F  0.51557885  0.51978518  0.45238554    -0.21800
F903        F  0.54811897  0.49901097  0.46335502    -0.18900
F904        F  0.48737831  0.50363692  0.57387812    -0.19000
F905        F  0.49798420  0.54184465  0.57293145    -0.22900
F906        F  0.52441442  0.51399196  0.58412952    -0.24500
C907        C  0.54875382  0.40347038  0.41905494    -0.11300
C908        C  0.55603280  0.42641418  0.42518021     0.11300
C909        C  0.57915848  0.43367072  0.41846036    -0.03100
C910        C  0.59333001  0.41844413  0.40436322    -0.05800
C911        C  0.58569879  0.39574659  0.39670829    -0.16600
C912        C  0.56343626  0.38755256  0.40621934     0.02300
C913        C  0.53973183  0.44173751  0.44004027     0.12300
C914        C  0.58905184  0.45737927  0.42652228     0.62900
H915        H  0.61107619  0.42418056  0.40016312     0.12300
C916        C  0.55387431  0.36237849  0.40442101     0.55000
H917        H  0.53149463  0.39754548  0.42522471     0.08100
C918        C  0.52210438  0.45658164  0.43005314    -0.05700
C919        C  0.50804207  0.47102633  0.44505533    -0.06400
C920        C  0.50877978  0.46978992  0.47028337    -0.16000
C921        C  0.52773192  0.45514051  0.48013788    -0.01600
C922        C  0.54230514  0.44151108  0.46470074    -0.09200
C923        C  0.51750273  0.45640973  0.40351580     0.65100
H924        H  0.49591736  0.48310817  0.43658558     0.10600
C925        C  0.53492043  0.45452010  0.50631708     0.63500
H926        H  0.55646751  0.43056391  0.47181366     0.07900
F927        F  0.53466083  0.36215749  0.38908468    -0.19600
F928        F  0.54622868  0.35493972  0.42652719    -0.15800
F929        F  0.57035920  0.34595992  0.39698445    -0.19300
F930        F  0.59042673  0.45780113  0.45096175    -0.22600
F931        F  0.57444098  0.47560845  0.41892486    -0.24100
F932        F  0.61161486  0.46152239  0.41766498    -0.18100
F933        F  0.54883588  0.43490542  0.51157981    -0.20600
F934        F  0.51561709  0.45337940  0.52117912    -0.21800
F935        F  0.54825654  0.47432956  0.51161606    -0.18900
F936        F  0.50011436  0.47255004  0.39692248    -0.19000
F937        F  0.50997409  0.43409306  0.39681914    -0.22900
F938        F  0.53804481  0.46193725  0.39131116    -0.24500
C939        C  0.42758546  0.42888774  0.57477186    -0.11300
C940        C  0.42350688  0.42994928  0.55024694     0.11300
C941        C  0.40449947  0.41630488  0.54106912    -0.03100
C942        C  0.39067537  0.40190807  0.55651744    -0.05800
C943        C  0.39475467  0.40009696  0.58137615    -0.16600
C944        C  0.41382834  0.41458794  0.59050861     0.02300
C945        C  0.44029382  0.44396322  0.53427197     0.12300
C946        C  0.39854796  0.41699540  0.51474396     0.62900
H947        H  0.37696439  0.39224709  0.54860087     0.12300
C948        C  0.42126081  0.41664281  0.61641605     0.55000
H949        H  0.44216534  0.43921871  0.58180009     0.08100
C950        C  0.43899247  0.46875365  0.53075827    -0.05700
C951        C  0.45450688  0.47989728  0.51422366    -0.06400
C952        C  0.47220002  0.46770540  0.50070281    -0.16000
C953        C  0.47118715  0.44183091  0.50288752    -0.01600
C954        C  0.45711192  0.43147563  0.52112295    -0.09200
C955        C  0.42181840  0.48359929  0.54516129     0.65100
H956        H  0.45370975  0.49898173  0.51265110     0.10600
C957        C  0.48242804  0.42271153  0.48719219     0.63500
H958        H  0.45800769  0.41249960  0.52421286     0.07900
F959        F  0.41748138  0.43970267  0.62375221    -0.19600
F960        F  0.44528217  0.41160947  0.61843833    -0.15800
F961        F  0.40947093  0.40192693  0.63186635    -0.19300
F962        F  0.41712217  0.40768215  0.50178491    -0.22600
F963        F  0.39457660  0.44013671  0.50761674    -0.24100
F964        F  0.37837008  0.40401236  0.50942747    -0.18100
F965        F  0.46645670  0.40431283  0.48387285    -0.20600
F966        F  0.50229574  0.41334708  0.49823919    -0.21800
F967        F  0.48815625  0.42983574  0.46481156    -0.18900
F968        F  0.42228839  0.50724326  0.53851708    -0.19000
F969        F  0.42785967  0.48216636  0.56887273    -0.22900
F970        F  0.39886127  0.47538999  0.54217685    -0.24500
C971        C  0.10453262  0.23908068  0.49242996    -0.11300
C972        C  0.11148790  0.26053814  0.50286133     0.11300
C973        C  0.09416081  0.27494374  0.51385957    -0.03100
C974        C  0.07025982  0.26772928  0.51324575    -0.05800
C975        C  0.06300203  0.24643315  0.50247309    -0.16600
C976        C  0.08066803  0.23127340  0.49275683     0.02300
C977        C  0.13720219  0.26700879  0.50315818     0.12300
C978        C  0.10085642  0.29784901  0.52629952     0.62900
H979        H  0.05684980  0.27905363  0.52102073     0.12300
C980        C  0.07467006  0.20703036  0.48287144     0.55000
H981        H  0.11812586  0.22836420  0.48413236     0.08100
C982        C  0.15346066  0.25589484  0.51890569    -0.05700
C983        C  0.17712669  0.26397289  0.51955668    -0.06400
C984        C  0.18490234  0.28265330  0.50505538    -0.16000
C985        C  0.16890484  0.29339855  0.48894641    -0.01600
C986        C  0.14521273  0.28525243  0.48811824    -0.09200
C987        C  0.14582880  0.23564050  0.53499748     0.65100
H988        H  0.18988261  0.25568656  0.53138855     0.10600
C989        C  0.17716128  0.31306968  0.47255294     0.63500
H990        H  0.13266115  0.29318783  0.47584536     0.07900
F991        F  0.09474832  0.19508478  0.47521355    -0.19600
F992        F  0.05929431  0.20929397  0.46384683    -0.15800
F993        F  0.06419374  0.19337814  0.50037034    -0.19300
F994        F  0.10964499  0.31400224  0.51008622    -0.22600
F995        F  0.11799436  0.29334814  0.54334174    -0.24100
F996        F  0.08152556  0.30815763  0.53740395    -0.18100
F997        F  0.19482450  0.30456418  0.45782390    -0.20600
F998        F  0.18613443  0.33163722  0.48574676    -0.21800
F999        F  0.15880944  0.32172422  0.45859544    -0.18900
F1000       F  0.16378344  0.22892996  0.55044563    -0.19000
F1001       F  0.13988305  0.21611474  0.52153627    -0.22900
F1002       F  0.12636961  0.24237127  0.54832381    -0.24500
C1003       C  0.03576046  0.24114213  0.38573950    -0.11300
C1004       C  0.01997414  0.22801063  0.37172069     0.11300
C1005       C  0.99771391  0.22104575  0.38108552    -0.03100
C1006       C  0.99203952  0.22757380  0.40437835    -0.05800
C1007       C  0.00800007  0.24024045  0.41869737    -0.16600
C1008       C  0.03036962  0.24716163  0.40930949     0.02300
C1009       C  0.02735201  0.22110625  0.34747005     0.12300
C1010       C  0.98026968  0.20627513  0.36675860     0.62900
H1011       H  0.97530774  0.22194678  0.41204613     0.12300
C1012       C  0.04967582  0.25984015  0.42319391     0.55000
H1013       H  0.05284997  0.24611908  0.37838614     0.08100
C1014       C  0.02363641  0.23621408  0.32781682    -0.05700
C1015       C  0.02798192  0.22732207  0.30500890    -0.06400
C1016       C  0.03612594  0.20400173  0.30130853    -0.16000
C1017       C  0.04155288  0.18951065  0.32120692    -0.01600
C1018       C  0.03710423  0.19846544  0.34406683    -0.09200
C1019       C  0.01498385  0.26153368  0.33101525     0.65100
H1020       H  0.02453317  0.23846419  0.28971692     0.10600
C1021       C  0.05104398  0.16448109  0.31848143     0.63500
H1022       H  0.04038439  0.18754123  0.35955653     0.07900
F1023       F  0.04381557  0.26403161  0.44650926    -0.19600
F1024       F  0.05433507  0.28140312  0.41244512    -0.15800
F1025       F  0.07021249  0.24630168  0.42298284    -0.19300
F1026       F  0.99050352  0.18478499  0.36096529    -0.22600
F1027       F  0.97408824  0.21812431  0.34617553    -0.24100
F1028       F  0.95960352  0.20165201  0.37923398    -0.18100
F1029       F  0.05269950  0.15280400  0.34004130    -0.20600
F1030       F  0.07354757  0.16519737  0.30875953    -0.21800
F1031       F  0.03613257  0.15149652  0.30398928    -0.18900
F1032       F  0.01173824  0.27300363  0.30952643    -0.19000
F1033       F  0.03156107  0.27413609  0.34395158    -0.22900
F1034       F  0.99354046  0.26178633  0.34293797    -0.24500
C1035       C  0.95300197  0.20924048  0.59050400    -0.11300
C1036       C  0.96160733  0.22440712  0.60802071     0.11300
C1037       C  0.97374341  0.24542411  0.60133713    -0.03100
C1038       C  0.97806663  0.24975429  0.57704493    -0.05800
C1039       C  0.97057118  0.23375536  0.55954229    -0.16600
C1040       C  0.95658375  0.21382943  0.56634010     0.02300
C1041       C  0.95987830  0.21613660  0.63302905     0.12300
C1042       C  0.98231919  0.26295742  0.61980365     0.62900
H1043       H  0.98823949  0.26512757  0.57164561     0.12300
C1044       C  0.94540187  0.19711655  0.54843188     0.55000
H1045       H  0.94407360  0.19312802  0.59598484     0.08100
C1046       C  0.93833224  0.21659893  0.64602227    -0.05700
C1047       C  0.93825316  0.20754840  0.66934954    -0.06400
C1048       C  0.95881518  0.19784414  0.67971443    -0.16000
C1049       C  0.97998967  0.19630117  0.66625317    -0.01600
C1050       C  0.98008699  0.20544869  0.64304372    -0.09200
C1051       C  0.91560204  0.22661499  0.63535592     0.65100
H1052       H  0.92222451  0.20843167  0.67991094     0.10600
C1053       C  0.00219585  0.18446230  0.67611520     0.63500
H1054       H  0.99606051  0.20437886  0.63240719     0.07900
F1055       F  0.92761120  0.18353366  0.55858790    -0.19600
F1056       F  0.96246707  0.18186984  0.53961783    -0.15800
F1057       F  0.93524257  0.20990010  0.53004358    -0.19300
F1058       F  0.99917841  0.25245932  0.63429021    -0.22600
F1059       F  0.96336683  0.27033287  0.63348750    -0.24100
F1060       F  0.99246400  0.28282098  0.60951029    -0.18100
F1061       F  0.01980263  0.18238596  0.65913523    -0.20600
F1062       F  0.99665878  0.16194455  0.68413551    -0.21800
F1063       F  0.01128892  0.19757185  0.69464113    -0.18900
F1064       F  0.89723951  0.22703925  0.65164627    -0.19000
F1065       F  0.90843851  0.21283096  0.61647529    -0.22900
F1066       F  0.91936455  0.24953894  0.62752198    -0.24500
C1067       C  0.26811623  0.13259455  0.55734304    -0.11300
C1068       C  0.24512141  0.13035835  0.54788721     0.11300
C1069       C  0.23041881  0.15065518  0.54592891    -0.03100
C1070       C  0.24049235  0.17302476  0.55041841    -0.05800
C1071       C  0.26448489  0.17546446  0.55700807    -0.16600
C1072       C  0.27828037  0.15497603  0.56158343     0.02300
C1073       C  0.23855604  0.10727690  0.53701903     0.12300
C1074       C  0.20459064  0.14874930  0.53828166     0.62900
H1075       H  0.23010188  0.18895050  0.54743882     0.12300
C1076       C  0.30409807  0.15682457  0.56913056     0.55000
H1077       H  0.27875115  0.11669292  0.55940668     0.08100
C1078       C  0.24809755  0.10051239  0.51482263    -0.05700
C1079       C  0.24320949  0.07773772  0.50622085    -0.06400
C1080       C  0.22889896  0.06168190  0.51874496    -0.16000
C1081       C  0.21817932  0.06888090  0.54027263    -0.01600
C1082       C  0.22356298  0.09159074  0.54927893    -0.09200
C1083       C  0.26379156  0.11708749  0.50038628     0.65100
H1084       H  0.25105376  0.07201153  0.48969039     0.10600
C1085       C  0.20182514  0.05248897  0.55399533     0.63500
H1086       H  0.21650932  0.09711947  0.56620430     0.07900
F1087       F  0.31442183  0.13473962  0.57228040    -0.19600
F1088       F  0.30560256  0.16887768  0.59033715    -0.15800
F1089       F  0.31690242  0.16888999  0.55202605    -0.19300
F1090       F  0.19237476  0.13450303  0.55407079    -0.22600
F1091       F  0.20314821  0.13900852  0.51589791    -0.24100
F1092       F  0.19346557  0.17066466  0.53774705    -0.18100
F1093       F  0.19413540  0.06265067  0.57490599    -0.20600
F1094       F  0.21360789  0.03166777  0.55955015    -0.21800
F1095       F  0.18198407  0.04736587  0.54045186    -0.18900
F1096       F  0.26890639  0.10789403  0.47827088    -0.19000
F1097       F  0.28510617  0.12076168  0.51202219    -0.22900
F1098       F  0.25243998  0.13860505  0.49705561    -0.24500
C1099       C  0.22463122  0.02679720  0.38201339    -0.11300
C1100       C  0.20286511  0.03860842  0.37893693     0.11300
C1101       C  0.18907419  0.04457495  0.39893765    -0.03100
C1102       C  0.19688670  0.03701691  0.42138847    -0.05800
C1103       C  0.21808878  0.02402921  0.42449140    -0.16600
C1104       C  0.23293953  0.01996101  0.40458952     0.02300
C1105       C  0.19410237  0.04251579  0.35440851     0.12300
C1106       C  0.16589726  0.05828837  0.39654710     0.62900
H1107       H  0.18597020  0.04061701  0.43674102     0.12300
C1108       C  0.25708855  0.00806674  0.40683458     0.55000
H1109       H  0.23480725  0.02241318  0.36636759     0.08100
C1110       C  0.20377830  0.06008080  0.33924665    -0.05700
C1111       C  0.19613328  0.06089684  0.31549344    -0.06400
C1112       C  0.17931886  0.04478715  0.30676462    -0.16000
C1113       C  0.16878277  0.02810255  0.32218152    -0.01600
C1114       C  0.17660437  0.02703724  0.34580905    -0.09200
C1115       C  0.22245779  0.07744495  0.34792206     0.65100
H1116       H  0.20410231  0.07335045  0.30321204     0.10600
C1117       C  0.14935997  0.01160856  0.31354284     0.63500
H1118       H  0.16952773  0.01368033  0.35767947     0.07900
F1119       F  0.26824639  0.00583043  0.38511765    -0.19600
F1120       F  0.25458266  0.98562751  0.41644170    -0.15800
F1121       F  0.27167924  0.02155573  0.42119850    -0.19300
F1122       F  0.14894067  0.04441364  0.38557986    -0.22600
F1123       F  0.16943515  0.07858537  0.38322591    -0.24100
F1124       F  0.15709339  0.06506064  0.41838310    -0.18100
F1125       F  0.15793367  0.99729745  0.29566261    -0.20600
F1126       F  0.13053721  0.02492456  0.30492176    -0.21800
F1127       F  0.14093271  0.99714741  0.33152135    -0.18900
F1128       F  0.22778307  0.09433877  0.33089478    -0.19000
F1129       F  0.24319908  0.06550481  0.35353920    -0.22900
F1130       F  0.21431713  0.08910012  0.36780857    -0.24500
C1131       C  0.24252800  0.96566580  0.59888634    -0.11300
C1132       C  0.22468390  0.94891051  0.60357809     0.11300
C1133       C  0.21340751  0.93717601  0.58453532    -0.03100
C1134       C  0.21818589  0.94487975  0.56136735    -0.05800
C1135       C  0.23431863  0.96331393  0.55675507    -0.16600
C1136       C  0.24811903  0.97259614  0.57555001     0.02300
C1137       C  0.21587083  0.94647499  0.62823209     0.12300
C1138       C  0.19534550  0.91760631  0.58862695     0.62900
H1139       H  0.20825537  0.93744031  0.54670309     0.12300
C1140       C  0.26789899  0.99031027  0.57113324     0.55000
H1141       H  0.25114037  0.97424497  0.61371324     0.08100
C1142       C  0.22874910  0.93448661  0.64624074    -0.05700
C1143       C  0.21943147  0.93425573  0.66938554    -0.06400
C1144       C  0.19797852  0.94575413  0.67481834    -0.16000
C1145       C  0.18496700  0.95734081  0.65676454    -0.01600
C1146       C  0.19418293  0.95751962  0.63366717    -0.09200
C1147       C  0.25248690  0.92268835  0.64124860     0.65100
H1148       H  0.22930891  0.92591632  0.68366436     0.10600
C1149       C  0.16175840  0.96990614  0.66214885     0.63500
H1150       H  0.18479409  0.96683932  0.61966849     0.07900
F1151       F  0.27915721  0.99681703  0.59194115    -0.19600
F1152       F  0.25885275  0.01054889  0.56055618    -0.15800
F1153       F  0.28477159  0.98027986  0.55644848    -0.19300
F1154       F  0.17417799  0.92721794  0.59646749    -0.22600
F1155       F  0.20376566  0.90169933  0.60536587    -0.24100
F1156       F  0.19085160  0.90512658  0.56802822    -0.18100
F1157       F  0.16579963  0.98805505  0.67804081    -0.20600
F1158       F  0.14585410  0.95398018  0.67192938    -0.21800
F1159       F  0.15149853  0.97953666  0.64196603    -0.18900
F1160       F  0.26009975  0.90901622  0.66023266    -0.19000
F1161       F  0.26951124  0.93979071  0.63689536    -0.22900
F1162       F  0.25064860  0.90808203  0.62172841    -0.24500
C1163       C  0.53033038  0.15242750  0.25508510    -0.11300
C1164       C  0.54469190  0.13312304  0.24881842     0.11300
C1165       C  0.56965033  0.13601201  0.24754987    -0.03100
C1166       C  0.57959690  0.15787815  0.25425999    -0.05800
C1167       C  0.56535750  0.17694630  0.26161638    -0.16600
C1168       C  0.54021268  0.17455364  0.26113966     0.02300
C1169       C  0.53330933  0.10969219  0.24474205     0.12300
C1170       C  0.58556836  0.11615072  0.23872294     0.62900
H1171       H  0.59868316  0.16036420  0.25362100     0.12300
C1172       C  0.52380841  0.19537602  0.26599979     0.55000
H1173       H  0.51124166  0.14989938  0.25539953     0.08100
C1174       C  0.52887647  0.09399973  0.26373509    -0.05700
C1175       C  0.52018933  0.07127490  0.25870698    -0.06400
C1176       C  0.51527753  0.06360416  0.23539765    -0.16000
C1177       C  0.51864162  0.07998372  0.21640936    -0.01600
C1178       C  0.52768573  0.10279134  0.22154709    -0.09200
C1179       C  0.53332611  0.10125195  0.28930244     0.65100
H1180       H  0.51737504  0.05920318  0.27335128     0.10600
C1181       C  0.51283965  0.07379389  0.19090981     0.63500
H1182       H  0.53091383  0.11540089  0.20740942     0.07900
F1183       F  0.52499906  0.20143553  0.28963871    -0.19600
F1184       F  0.50035463  0.19008154  0.26073127    -0.15800
F1185       F  0.53035451  0.21462573  0.25222865    -0.19300
F1186       F  0.57973579  0.11090226  0.21552644    -0.22600
F1187       F  0.58262228  0.09606073  0.25249984    -0.24100
F1188       F  0.60936325  0.12235778  0.23942315    -0.18100
F1189       F  0.51607918  0.09291153  0.17580039    -0.20600
F1190       F  0.48931411  0.06685911  0.18914254    -0.21800
F1191       F  0.52753250  0.05567607  0.18335351    -0.18900
F1192       F  0.52838834  0.08307461  0.30508841    -0.19000
F1193       F  0.51894512  0.12028947  0.29495029    -0.22900
F1194       F  0.55684842  0.10763894  0.29237542    -0.24500
C1195       C  0.33784495  0.04744762  0.21919998    -0.11300
C1196       C  0.35058189  0.02816361  0.21012108     0.11300
C1197       C  0.33943702  0.01232881  0.19419030    -0.03100
C1198       C  0.31578527  0.01679780  0.18731029    -0.05800
C1199       C  0.30307220  0.03618269  0.19623230    -0.16600
C1200       C  0.31403950  0.05164394  0.21266273     0.02300
C1201       C  0.37573995  0.02500421  0.21735415     0.12300
C1202       C  0.35227366  0.99043637  0.18513847     0.62900
H1203       H  0.30670877  0.00471954  0.17549070     0.12300
C1204       C  0.30045687  0.07212552  0.22358259     0.55000
H1205       H  0.34672791  0.05909460  0.23158300     0.08100
C1206       C  0.39433102  0.03672618  0.20528179    -0.05700
C1207       C  0.41789057  0.03105952  0.21129229    -0.06400
C1208       C  0.42335005  0.01400837  0.22871465    -0.16000
C1209       C  0.40469488  0.00289785  0.24140695    -0.01600
C1210       C  0.38104146  0.00896676  0.23569814    -0.09200
C1211       C  0.38926298  0.05473745  0.18579519     0.65100
H1212       H  0.43238505  0.03948020  0.20187360     0.10600
C1213       C  0.40961471  0.98378527  0.25978441     0.63500
H1214       H  0.36639107  0.00048867  0.24480702     0.07900
F1215       F  0.31407018  0.08424122  0.24001220    -0.19600
F1216       F  0.28039623  0.06376997  0.23500755    -0.15800
F1217       F  0.29370585  0.08791263  0.20602066    -0.19300
F1218       F  0.35732265  0.97539845  0.20388624    -0.22600
F1219       F  0.37330336  0.99676389  0.17418795    -0.24100
F1220       F  0.33864308  0.97808333  0.16891752    -0.18100
F1221       F  0.38883851  0.97401691  0.26855879    -0.20600
F1222       F  0.42208912  0.99331208  0.27859329    -0.21800
F1223       F  0.42281281  0.96573439  0.24975604    -0.18900
F1224       F  0.40997114  0.06339134  0.17576865    -0.19000
F1225       F  0.37677826  0.07367702  0.19501683    -0.22900
F1226       F  0.37592774  0.04447487  0.16798668    -0.24500
C1227       C  0.60563506  0.98413999  0.22999580    -0.11300
C1228       C  0.61085030  0.96609233  0.21377598     0.11300
C1229       C  0.59272743  0.95059780  0.20608339    -0.03100
C1230       C  0.56933577  0.95497258  0.21349142    -0.05800
C1231       C  0.56377567  0.97395376  0.22851629    -0.16600
C1232       C  0.58216668  0.98857079  0.23737404     0.02300
C1233       C  0.63523526  0.96474249  0.20411843     0.12300
C1234       C  0.59804211  0.92986930  0.18980441     0.62900
H1235       H  0.55495671  0.94413394  0.20681013     0.12300
C1236       C  0.57683768  0.00960675  0.25318959     0.55000
H1237       H  0.62000751  0.99545293  0.23589332     0.08100
C1238       C  0.64272703  0.97968341  0.18533116    -0.05700
C1239       C  0.66654715  0.97848889  0.17794235    -0.06400
C1240       C  0.68260570  0.96266785  0.18849958    -0.16000
C1241       C  0.67477890  0.94684365  0.20641516    -0.01600
C1242       C  0.65111866  0.94842473  0.21418721    -0.09200
C1243       C  0.62576024  0.99710057  0.17349676     0.65100
H1244       H  0.67305266  0.99044621  0.16437283     0.10600
C1245       C  0.69134020  0.92847114  0.21729506     0.63500
H1246       H  0.64483235  0.93711371  0.22839230     0.07900
F1247       F  0.59720946  0.02213464  0.25886185    -0.19600
F1248       F  0.56662056  0.00179984  0.27405448    -0.15800
F1249       F  0.56135115  0.02494865  0.24177962    -0.19300
F1250       F  0.61293265  0.91400798  0.20125319    -0.22600
F1251       F  0.60898954  0.93772936  0.16933689    -0.24100
F1252       F  0.57756310  0.91790713  0.18335350    -0.18100
F1253       F  0.67984894  0.91450099  0.23391566    -0.20600
F1254       F  0.71023089  0.93948324  0.22840773    -0.21800
F1255       F  0.69989937  0.91374995  0.19974034    -0.18900
F1256       F  0.63628008  0.00860899  0.15452763    -0.19000
F1257       F  0.61863296  0.01403478  0.18961515    -0.22900
F1258       F  0.60593612  0.98532687  0.16510429    -0.24500
C1259       C  0.55149604  0.28403801  0.12046053    -0.11300
C1260       C  0.53440617  0.26591475  0.12118432     0.11300
C1261       C  0.52750083  0.25630447  0.14334559    -0.03100
C1262       C  0.53741651  0.26587311  0.16420855    -0.05800
C1263       C  0.55435873  0.28413223  0.16342693    -0.16600
C1264       C  0.56172960  0.29322915  0.14127394     0.02300
C1265       C  0.52379992  0.25803176  0.09828287     0.12300
C1266       C  0.51050967  0.23547128  0.14486237     0.62900
H1267       H  0.53276970  0.25850096  0.18132555     0.12300
C1268       C  0.58060689  0.31234158  0.13979575     0.55000
H1269       H  0.55679824  0.29089621  0.10332263     0.08100
C1270       C  0.50581511  0.27148993  0.08693927    -0.05700
C1271       C  0.49862450  0.26507051  0.06400761    -0.06400
C1272       C  0.50892565  0.24593777  0.05181076    -0.16000
C1273       C  0.52595778  0.23158052  0.06367443    -0.01600
C1274       C  0.53325352  0.23804392  0.08679098    -0.09200
C1275       C  0.49470304  0.29301977  0.09872027     0.65100
H1276       H  0.48532768  0.27566941  0.05493654     0.10600
C1277       C  0.53704190  0.21024342  0.05173613     0.63500
H1278       H  0.54702142  0.22802106  0.09580168     0.07900
F1279       F  0.57331247  0.33197789  0.15245065    -0.19600
F1280       F  0.58481709  0.31933732  0.11665050    -0.15800
F1281       F  0.60172713  0.30395355  0.14925876    -0.19300
F1282       F  0.52070111  0.21591745  0.13423368    -0.22600
F1283       F  0.48939159  0.24080626  0.13345442    -0.24100
F1284       F  0.50530440  0.22956153  0.16810567    -0.18100
F1285       F  0.55353456  0.19906051  0.06622231    -0.20600
F1286       F  0.54845554  0.21724934  0.03119812    -0.21800
F1287       F  0.51952375  0.19397781  0.04624743    -0.18900
F1288       F  0.47670445  0.30282774  0.08505380    -0.19000
F1289       F  0.51173882  0.31027899  0.10225938    -0.22900
F1290       F  0.48508910  0.28663793  0.12032069    -0.24500
C1291       C  0.37822466  0.24471120  0.99755751    -0.11300
C1292       C  0.37489938  0.23192437  0.01870492     0.11300
C1293       C  0.39475160  0.22699509  0.03343209    -0.03100
C1294       C  0.41752285  0.23381999  0.02568153    -0.05800
C1295       C  0.42092145  0.24583630  0.00412995    -0.16600
C1296       C  0.40095794  0.25224896  0.99027205     0.02300
C1297       C  0.35063371  0.22288239  0.02429064     0.12300
C1298       C  0.39197710  0.21424106  0.05701135     0.62900
H1299       H  0.43307985  0.22894986  0.03598050     0.12300
C1300       C  0.40388257  0.26619828  0.96752362     0.55000
H1301       H  0.36289940  0.24812568  0.98640392     0.08100
C1302       C  0.33210288  0.23798492  0.03207843    -0.05700
C1303       C  0.30934903  0.22826195  0.03588014    -0.06400
C1304       C  0.30463350  0.20414679  0.03198763    -0.16000
C1305       C  0.32317970  0.18901933  0.02452238    -0.01600
C1306       C  0.34594864  0.19869314  0.02070733    -0.09200
C1307       C  0.33613897  0.26435070  0.03565673     0.65100
H1308       H  0.29472210  0.23964259  0.04100822     0.10600
C1309       C  0.31853386  0.16301118  0.01970467     0.63500
H1310       H  0.36021548  0.18753705  0.01428610     0.07900
F1311       F  0.41514655  0.28741578  0.97237426    -0.19600
F1312       F  0.38221209  0.27130400  0.95697325    -0.15800
F1313       F  0.41739046  0.25328494  0.95171211    -0.19300
F1314       F  0.38465421  0.19117786  0.05335495    -0.22600
F1315       F  0.37530398  0.22582446  0.07072927    -0.24100
F1316       F  0.41314406  0.21353973  0.06958029    -0.18100
F1317       F  0.30160462  0.16082816  0.00203268    -0.20600
F1318       F  0.31031571  0.15213975  0.04009131    -0.21800
F1319       F  0.33889643  0.15127519  0.01251741    -0.18900
F1320       F  0.31663933  0.27519544  0.04591873    -0.19000
F1321       F  0.34022084  0.27522372  0.01407125    -0.22900
F1322       F  0.35555249  0.26793760  0.05027747    -0.24500
C1323       C  0.60247683  0.24094591  0.96031074    -0.11300
C1324       C  0.60528726  0.22208638  0.94433600     0.11300
C1325       C  0.58496563  0.21194363  0.93361159    -0.03100
C1326       C  0.56243476  0.21993494  0.94060359    -0.05800
C1327       C  0.55945436  0.23802150  0.95742666    -0.16600
C1328       C  0.57978830  0.24941380  0.96681625     0.02300
C1329       C  0.62928587  0.21136295  0.94205984     0.12300
C1330       C  0.58583546  0.19221197  0.91538683     0.62900
H1331       H  0.54682062  0.21145734  0.93315862     0.12300
C1332       C  0.57757623  0.26959501  0.98433050     0.55000
H1333       H  0.61828453  0.24840244  0.96833527     0.08100
C1334       C  0.64699838  0.22106196  0.92715494    -0.05700
C1335       C  0.66977727  0.21065759  0.92722822    -0.06400
C1336       C  0.67498754  0.19080369  0.94138192    -0.16000
C1337       C  0.65694723  0.18040090  0.95533616    -0.01600
C1338       C  0.63428166  0.19098615  0.95554769    -0.09200
C1339       C  0.64163315  0.24198024  0.91103517     0.65100
H1340       H  0.68391219  0.21828182  0.91666632     0.10600
C1341       C  0.66176964  0.15817716  0.96977317     0.63500
H1342       H  0.62028942  0.18362593  0.96648191     0.07900
F1343       F  0.59957700  0.27733875  0.99214007    -0.19600
F1344       F  0.56466169  0.26230184  0.00386422    -0.15800
F1345       F  0.56615566  0.28853469  0.97359328    -0.19300
F1346       F  0.57626868  0.17182433  0.92511732    -0.22600
F1347       F  0.60855819  0.18718567  0.90758623    -0.24100
F1348       F  0.57240501  0.19871025  0.89583540    -0.18100
F1349       F  0.67928181  0.16254446  0.98641694    -0.20600
F1350       F  0.66929330  0.14027368  0.95488226    -0.21800
F1351       F  0.64164669  0.15041270  0.98155764    -0.18900
F1352       F  0.66128933  0.24856337  0.89784637    -0.19000
F1353       F  0.63460276  0.26128351  0.92429672    -0.22900
F1354       F  0.62356102  0.23601176  0.89551989    -0.24500
C1355       C  0.10107266  0.53509057  0.23911412    -0.11300
C1356       C  0.11534210  0.51818499  0.25071884     0.11300
C1357       C  0.10578429  0.49559680  0.25615445    -0.03100
C1358       C  0.08181745  0.49105850  0.25044882    -0.05800
C1359       C  0.06732040  0.50823999  0.23952689    -0.16600
C1360       C  0.07711938  0.53050486  0.23338284     0.02300
C1361       C  0.13899952  0.52600224  0.25961965     0.12300
C1362       C  0.12065839  0.47653369  0.26825428     0.62900
H1363       H  0.07388838  0.47421614  0.25520661     0.12300
C1364       C  0.06191486  0.54982180  0.22232277     0.55000
H1365       H  0.10861585  0.55239469  0.23556899     0.08100
C1366       C  0.15910180  0.52803406  0.24471238    -0.05700
C1367       C  0.18003694  0.53808677  0.25398342    -0.06400
C1368       C  0.18119162  0.54684631  0.27724856    -0.16000
C1369       C  0.16114160  0.54465825  0.29218515    -0.01600
C1370       C  0.14038378  0.53403744  0.28310849    -0.09200
C1371       C  0.15812132  0.52074240  0.21885338     0.65100
H1372       H  0.19545052  0.54025330  0.24270970     0.10600
C1373       C  0.16117590  0.55481027  0.31702732     0.63500
H1374       H  0.12460743  0.53276556  0.29401044     0.07900
F1375       F  0.05285433  0.54211043  0.20092261    -0.19600
F1376       F  0.07478649  0.57031732  0.21815541    -0.15800
F1377       F  0.04336356  0.55531593  0.23737490    -0.19300
F1378       F  0.12845354  0.48434173  0.29009192    -0.22600
F1379       F  0.14014616  0.47111125  0.25443456    -0.24100
F1380       F  0.10784750  0.45588238  0.27179336    -0.18100
F1381       F  0.13939987  0.55198082  0.32807040    -0.20600
F1382       F  0.16618312  0.57879517  0.31609002    -0.21800
F1383       F  0.17818720  0.54345754  0.33066179    -0.18900
F1384       F  0.18012387  0.52262572  0.20804117    -0.19000
F1385       F  0.14235479  0.53517784  0.20671102    -0.22900
F1386       F  0.15071852  0.49749746  0.21695282    -0.24500
C1387       C  0.02997449  0.39154367  0.20545204    -0.11300
C1388       C  0.01661807  0.37426106  0.21723966     0.11300
C1389       C  0.00273591  0.38074992  0.23711808    -0.03100
C1390       C  0.00059194  0.40498662  0.24288095    -0.05800
C1391       C  0.01245439  0.42254878  0.22978349    -0.16600
C1392       C  0.02848772  0.41561948  0.21162394     0.02300
C1393       C  0.01769238  0.34951348  0.20826102     0.12300
C1394       C  0.99042884  0.36210915  0.25215767     0.62900
H1395       H  0.98900914  0.41045113  0.25715391     0.12300
C1396       C  0.04432941  0.43338774  0.19894962     0.55000
H1397       H  0.04121364  0.38604812  0.19090382     0.08100
C1398       C  0.00211912  0.34133221  0.19028090    -0.05700
C1399       C  0.00368837  0.31749997  0.18306961    -0.06400
C1400       C  0.02096747  0.30217574  0.19244854    -0.16000
C1401       C  0.03736629  0.31070858  0.20949606    -0.01600
C1402       C  0.03533028  0.33433234  0.21724101    -0.09200
C1403       C  0.98441305  0.35788855  0.17833096     0.65100
H1404       H  0.99148255  0.31061813  0.16992615     0.10600
C1405       C  0.05679038  0.29485454  0.21953676     0.63500
H1406       H  0.04745611  0.34119027  0.23046669     0.07900
F1407       F  0.03115267  0.44633558  0.18273908    -0.19600
F1408       F  0.06256056  0.42222315  0.18686332    -0.15800
F1409       F  0.05458205  0.44858352  0.21519735    -0.19300
F1410       F  0.00722782  0.34680594  0.26157356    -0.22600
F1411       F  0.97458460  0.34929903  0.23855638    -0.24100
F1412       F  0.97799033  0.37213773  0.27073752    -0.18100
F1413       F  0.07089322  0.30667181  0.23577140    -0.20600
F1414       F  0.07128289  0.28705218  0.20141251    -0.21800
F1415       F  0.04677311  0.27551250  0.23082267    -0.18900
F1416       F  0.97037107  0.34612471  0.16200029    -0.19000
F1417       F  0.99655462  0.37564466  0.16654224    -0.22900
F1418       F  0.96957706  0.36801901  0.19494246    -0.24500
C1419       C  0.95251544  0.59806824  0.25012792    -0.11300
C1420       C  0.96323185  0.61151561  0.23209772     0.11300
C1421       C  0.98308032  0.60220722  0.21991576    -0.03100
C1422       C  0.99035078  0.57887567  0.22495247    -0.05800
C1423       C  0.97872181  0.56470913  0.24190131    -0.16600
C1424       C  0.95977280  0.57460213  0.25515367     0.02300
C1425       C  0.95235840  0.63463567  0.22524192     0.12300
C1426       C  0.99620639  0.61667494  0.20132359     0.62900
H1427       H  0.00484579  0.57114762  0.21501526     0.12300
C1428       C  0.94646507  0.56017238  0.27354102     0.55000
H1429       H  0.93770101  0.60583946  0.25956472     0.08100
C1430       C  0.93186384  0.63584727  0.21056195    -0.05700
C1431       C  0.92259108  0.65823521  0.20444947    -0.06400
C1432       C  0.93321614  0.67915372  0.21241532    -0.16000
C1433       C  0.95384525  0.67803908  0.22681049    -0.01600
C1434       C  0.96300689  0.65564453  0.23317273    -0.09200
C1435       C  0.91970185  0.61359228  0.20158053     0.65100
H1436       H  0.90659843  0.65961779  0.19379363     0.10600
C1437       C  0.96597769  0.70045462  0.23540736     0.63500
H1438       H  0.97855552  0.65431480  0.24445420     0.07900
F1439       F  0.92764645  0.57271389  0.28314881    -0.19600
F1440       F  0.96175701  0.55397300  0.29174543    -0.15800
F1441       F  0.93741482  0.53987607  0.26331408    -0.19300
F1442       F  0.00650608  0.63623604  0.21182103    -0.22600
F1443       F  0.98059723  0.62417646  0.18386910    -0.24100
F1444       F  0.01409161  0.60371648  0.19059437    -0.18100
F1445       F  0.98591816  0.69547893  0.24897545    -0.20600
F1446       F  0.95045145  0.71356527  0.24908937    -0.21800
F1447       F  0.97304011  0.71393550  0.21616299    -0.18900
F1448       F  0.90109623  0.61883923  0.18631799    -0.19000
F1449       F  0.91060707  0.60084884  0.22044196    -0.22900
F1450       F  0.93582557  0.59964865  0.18949877    -0.24500
C1451       C  0.26928903  0.52681267  0.15196044    -0.11300
C1452       C  0.26650645  0.54136707  0.13191311     0.11300
C1453       C  0.27041851  0.56608099  0.13390868    -0.03100
C1454       C  0.27789078  0.57528669  0.15582988    -0.05800
C1455       C  0.28120103  0.56071732  0.17575482    -0.16600
C1456       C  0.27646632  0.53609791  0.17401654     0.02300
C1457       C  0.26016332  0.53020505  0.10883837     0.12300
C1458       C  0.26609136  0.58273419  0.11314003     0.62900
H1459       H  0.28068375  0.59417087  0.15779449     0.12300
C1460       C  0.27820325  0.51987458  0.19546887     0.55000
H1461       H  0.26579613  0.50803839  0.15011774     0.08100
C1462       C  0.27772612  0.52032710  0.09402725    -0.05700
C1463       C  0.27101834  0.51204071  0.07153072    -0.06400
C1464       C  0.24722150  0.51256197  0.06338857    -0.16000
C1465       C  0.22929908  0.52059581  0.07933970    -0.01600
C1466       C  0.23626927  0.52963103  0.10166140    -0.09200
C1467       C  0.30352659  0.51857865  0.10201033     0.65100
H1468       H  0.28470514  0.50514813  0.06002084     0.10600
C1469       C  0.20299189  0.51955842  0.07335300     0.63500
H1470       H  0.22309890  0.53660338  0.11374882     0.07900
F1471       F  0.27118304  0.49696550  0.19024804    -0.19600
F1472       F  0.26371402  0.52823381  0.21336793    -0.15800
F1473       F  0.30144039  0.51903254  0.20343908    -0.19300
F1474       F  0.24234493  0.58203916  0.10679207    -0.22600
F1475       F  0.27977924  0.57602777  0.09399838    -0.24100
F1476       F  0.27176824  0.60594505  0.11865189    -0.18100
F1477       F  0.19666688  0.49649815  0.06805363    -0.20600
F1478       F  0.19808478  0.53410657  0.05425995    -0.21800
F1479       F  0.18894091  0.52695063  0.09204008    -0.18900
F1480       F  0.31787388  0.50853056  0.08486325    -0.19000
F1481       F  0.30507146  0.50459920  0.12212403    -0.22900
F1482       F  0.31231360  0.54087508  0.10701705    -0.24500
C1483       C  0.21664595  0.33528403  0.03231113    -0.11300
C1484       C  0.20915469  0.35008270  0.01374293     0.11300
C1485       C  0.19345302  0.34121307  0.99623533    -0.03100
C1486       C  0.18498182  0.31783243  0.99850127    -0.05800
C1487       C  0.19208212  0.30318216  0.01736096    -0.16600
C1488       C  0.20854776  0.31177314  0.03433383     0.02300
C1489       C  0.21781792  0.37495414  0.01325435     0.12300
C1490       C  0.18620260  0.35621036  0.97499248     0.62900
H1491       H  0.17314888  0.31056229  0.98522968     0.12300
C1492       C  0.21810116  0.29597274  0.05403312     0.55000
H1493       H  0.22901110  0.34236909  0.04519271     0.08100
C1494       C  0.20642834  0.39292070  0.02641701    -0.05700
C1495       C  0.21421485  0.41640917  0.02370578    -0.06400
C1496       C  0.23291791  0.42253367  0.00833864    -0.16000
C1497       C  0.24531971  0.40425305  0.99628715    -0.01600
C1498       C  0.23751341  0.38063468  0.99910662    -0.09200
C1499       C  0.18580147  0.38735022  0.04288214     0.65100
H1500       H  0.20516769  0.43044033  0.03314474     0.10600
C1501       C  0.26605753  0.40953951  0.97994655     0.63500
H1502       H  0.24629470  0.36638500  0.98974880     0.07900
F1503       F  0.23490361  0.30749014  0.06773979    -0.19600
F1504       F  0.22875236  0.27609349  0.04445678    -0.15800
F1505       F  0.19972980  0.28904836  0.06871261    -0.19300
F1506       F  0.20606374  0.36154374  0.96161349    -0.22600
F1507       F  0.17572835  0.37706876  0.98240994    -0.24100
F1508       F  0.17013507  0.34452664  0.96056865    -0.18100
F1509       F  0.28450512  0.41932422  0.99282549    -0.20600
F1510       F  0.25908749  0.42523141  0.96241363    -0.21800
F1511       F  0.27451341  0.38927679  0.96903991    -0.18900
F1512       F  0.17682836  0.40755933  0.05346456    -0.19000
F1513       F  0.19331159  0.37212487  0.06062964    -0.22900
F1514       F  0.16754010  0.37677700  0.03037554    -0.24500
C1515       C  0.22713340  0.60563890  0.98641846    -0.11300
C1516       C  0.23110858  0.61299021  0.96308464     0.11300
C1517       C  0.24082568  0.59690796  0.94649309    -0.03100
C1518       C  0.24446653  0.57316244  0.95349751    -0.05800
C1519       C  0.23884768  0.56539344  0.97643376    -0.16600
C1520       C  0.23082959  0.58200908  0.99342672     0.02300
C1521       C  0.22379704  0.63735671  0.95631139     0.12300
C1522       C  0.24739628  0.60489908  0.92163220     0.62900
H1523       H  0.25098972  0.56034220  0.94090203     0.12300
C1524       C  0.22463272  0.57466546  0.01848309     0.55000
H1525       H  0.21995694  0.61834931  0.99885066     0.08100
C1526       C  0.20041278  0.64245974  0.94833519    -0.05700
C1527       C  0.19514160  0.66556922  0.94046977    -0.06400
C1528       C  0.21228534  0.68352491  0.94103130    -0.16000
C1529       C  0.23497721  0.67894333  0.95111369    -0.01600
C1530       C  0.24045194  0.65567167  0.95836172    -0.09200
C1531       C  0.18119688  0.62355359  0.94810337     0.65100
H1532       H  0.17780585  0.66964087  0.93308580     0.10600
C1533       C  0.25298102  0.69865194  0.95491857     0.63500
H1534       H  0.25788252  0.65147340  0.96544405     0.07900
F1535       F  0.20273485  0.56361760  0.01830455    -0.19600
F1536       F  0.22343442  0.59402137  0.03344303    -0.15800
F1537       F  0.24164882  0.55934390  0.02747601    -0.19300
F1538       F  0.26553774  0.62135688  0.92290918    -0.22600
F1539       F  0.22805065  0.61515423  0.91042312    -0.24100
F1540       F  0.25506725  0.58615389  0.90785378    -0.18100
F1541       F  0.24272073  0.71647681  0.96820475    -0.20600
F1542       F  0.26035314  0.70790896  0.93348605    -0.21800
F1543       F  0.27296305  0.69064364  0.96691560    -0.18900
F1544       F  0.15990493  0.63218700  0.93919826    -0.19000
F1545       F  0.17722361  0.61557417  0.97093322    -0.22900
F1546       F  0.18811359  0.60465337  0.93422771    -0.24500
C1547       C  0.49121466  0.27076240  0.82303573    -0.11300
C1548       C  0.47101054  0.26025229  0.83323472     0.11300
C1549       C  0.45009888  0.25752590  0.81939955    -0.03100
C1550       C  0.45014801  0.26567462  0.79584798    -0.05800
C1551       C  0.47037091  0.27596550  0.78564578    -0.16600
C1552       C  0.49128889  0.27860290  0.79930982     0.02300
C1553       C  0.47143891  0.25590437  0.85920159     0.12300
C1554       C  0.42715930  0.24665098  0.82848070     0.62900
H1555       H  0.43422759  0.26370702  0.78515066     0.12300
C1556       C  0.51316786  0.29051076  0.78904354     0.55000
H1557       H  0.50680815  0.27323755  0.83404925     0.08100
C1558       C  0.47925041  0.23434853  0.86941806    -0.05700
C1559       C  0.47971325  0.23216538  0.89433985    -0.06400
C1560       C  0.47353265  0.25118317  0.90924239    -0.16000
C1561       C  0.46551508  0.27287500  0.89862069    -0.01600
C1562       C  0.46436385  0.27452389  0.87378704    -0.09200
C1563       C  0.48759162  0.21409286  0.85392647     0.65100
H1564       H  0.48606821  0.21586983  0.90233964     0.10600
C1565       C  0.45856506  0.29466580  0.91286846     0.63500
H1566       H  0.45862081  0.29083188  0.86532543     0.07900
F1567       F  0.52209021  0.27710493  0.77064677    -0.19600
F1568       F  0.53097348  0.29310864  0.80580147    -0.15800
F1569       F  0.50718365  0.31279683  0.78059768    -0.19300
F1570       F  0.40982399  0.26402325  0.82941592    -0.22600
F1571       F  0.42933235  0.23653881  0.85070352    -0.24100
F1572       F  0.41978736  0.22912701  0.81304219    -0.18100
F1573       F  0.44785664  0.31189387  0.89889907    -0.20600
F1574       F  0.47857842  0.30469113  0.92296309    -0.21800
F1575       F  0.44256585  0.28851053  0.93033110    -0.18900
F1576       F  0.49366776  0.19428594  0.86717779    -0.19000
F1577       F  0.50736102  0.22112281  0.84119489    -0.22900
F1578       F  0.46975073  0.20774318  0.83830757    -0.24500
C1579       C  0.43587917  0.08361161  0.74049221    -0.11300
C1580       C  0.45177709  0.10060861  0.73164575     0.11300
C1581       C  0.47629952  0.09505851  0.73045452    -0.03100
C1582       C  0.48365336  0.07174865  0.73553585    -0.05800
C1583       C  0.46764953  0.05418890  0.74299865    -0.16600
C1584       C  0.44335883  0.06041766  0.74639781     0.02300
C1585       C  0.44238233  0.12355997  0.72225711     0.12300
C1586       C  0.49458726  0.11364192  0.72358534     0.62900
H1587       H  0.50200113  0.06679555  0.73283209     0.12300
C1588       C  0.42435418  0.04356647  0.75536617     0.55000
H1589       H  0.41723107  0.08827546  0.74201807     0.08100
C1590       C  0.43493402  0.12610610  0.69834941    -0.05700
C1591       C  0.43029411  0.14904070  0.68934152    -0.06400
C1592       C  0.43226168  0.16918809  0.70367467    -0.16000
C1593       C  0.43708923  0.16623108  0.72825516    -0.01600
C1594       C  0.44259045  0.14346657  0.73698276    -0.09200
C1595       C  0.43230960  0.10466713  0.68240049     0.65100
H1596       H  0.42626189  0.15152707  0.67072803     0.10600
C1597       C  0.43681788  0.18637422  0.74601628     0.63500
H1598       H  0.44757483  0.14126352  0.75542943     0.07900
F1599       F  0.40629678  0.04201535  0.73876518    -0.19600
F1600       F  0.41494502  0.05245297  0.77613403    -0.15800
F1601       F  0.43272846  0.02099939  0.75991890    -0.19300
F1602       F  0.49426187  0.13179445  0.73996034    -0.22600
F1603       F  0.48948713  0.12279322  0.70139837    -0.24100
F1604       F  0.51740232  0.10438121  0.72305937    -0.18100
F1605       F  0.42277476  0.18006063  0.76512080    -0.20600
F1606       F  0.42767893  0.20720770  0.73676897    -0.21800
F1607       F  0.45970747  0.19047542  0.75400093    -0.18900
F1608       F  0.42591799  0.11106153  0.65955629    -0.19000
F1609       F  0.41482539  0.08995752  0.69134939    -0.22900
F1610       F  0.45350262  0.09226838  0.68128762    -0.24500
C1611       C  0.59716758  0.03086783  0.75149921    -0.11300
C1612       C  0.61029459  0.01295459  0.76291905     0.11300
C1613       C  0.59976474  0.99052879  0.76699242    -0.03100
C1614       C  0.57642644  0.98668327  0.75896967    -0.05800
C1615       C  0.56320695  0.00459020  0.74766201    -0.16600
C1616       C  0.57358028  0.02709294  0.74392127     0.02300
C1617       C  0.63495456  0.01825791  0.77074938     0.12300
C1618       C  0.61279347  0.97100063  0.78040377     0.62900
H1619       H  0.56788908  0.96978063  0.76224349     0.12300
C1620       C  0.55925748  0.04731629  0.73347175     0.55000
H1621       H  0.60543335  0.04802994  0.74906828     0.08100
C1622       C  0.65434588  0.01726446  0.75487948    -0.05700
C1623       C  0.67737786  0.02112313  0.76375045    -0.06400
C1624       C  0.68156982  0.02585720  0.78782919    -0.16000
C1625       C  0.66207653  0.02757565  0.80357233    -0.01600
C1626       C  0.63894314  0.02396556  0.79461667    -0.09200
C1627       C  0.65074722  0.01162134  0.72881526     0.65100
H1628       H  0.69248792  0.02002087  0.75194124     0.10600
C1629       C  0.66568101  0.03244505  0.82974937     0.63500
H1630       H  0.62372398  0.02511968  0.80628132     0.07900
F1631       F  0.57250117  0.06790577  0.73163549    -0.19600
F1632       F  0.53999020  0.05179822  0.74792085    -0.15800
F1633       F  0.55132576  0.04133974  0.71108615    -0.19300
F1634       F  0.61694652  0.97807875  0.80345201    -0.22600
F1635       F  0.63427473  0.96611995  0.76960932    -0.24100
F1636       F  0.59974709  0.95021237  0.78118739    -0.18100
F1637       F  0.64473680  0.03005447  0.84237376    -0.20600
F1638       F  0.67381629  0.05533679  0.83271518    -0.21800
F1639       F  0.68207456  0.01670369  0.83919464    -0.18900
F1640       F  0.67206032  0.01110505  0.71659425    -0.19000
F1641       F  0.63643458  0.02866183  0.71838411    -0.22900
F1642       F  0.64005402  0.98970333  0.72648146    -0.24500
C1643       C  0.38157527  0.96886419  0.73009328    -0.11300
C1644       C  0.37593710  0.95484050  0.74992127     0.11300
C1645       C  0.39407908  0.94197975  0.76162864    -0.03100
C1646       C  0.41773439  0.94571621  0.75472017    -0.05800
C1647       C  0.42378365  0.96191546  0.73668815    -0.16600
C1648       C  0.40539418  0.97269513  0.72318496     0.02300
C1649       C  0.35131369  0.95536088  0.75940634     0.12300
C1650       C  0.38851620  0.92510835  0.78194486     0.62900
H1651       H  0.43193374  0.93693597  0.76435598     0.12300
C1652       C  0.41081638  0.98883880  0.70233676     0.55000
H1653       H  0.36719953  0.97782625  0.72090597     0.08100
C1654       C  0.34362249  0.97371813  0.77466397    -0.05700
C1655       C  0.32064418  0.97243803  0.78439134    -0.06400
C1656       C  0.30541447  0.95342833  0.77949423    -0.16000
C1657       C  0.31294055  0.93528945  0.76387455    -0.01600
C1658       C  0.33589521  0.93663422  0.75401909    -0.09200
C1659       C  0.35965717  0.99454269  0.78063060     0.65100
H1660       H  0.31421193  0.98646597  0.79575789     0.10600
C1661       C  0.29663396  0.91493880  0.75721737     0.63500
H1662       H  0.34213041  0.92296494  0.74213107     0.07900
F1663       F  0.42433919  0.00788840  0.70967161    -0.19600
F1664       F  0.39028864  0.99760188  0.69190313    -0.15800
F1665       F  0.42323413  0.97630614  0.68537219    -0.19300
F1666       F  0.37392993  0.90711080  0.77398013    -0.22600
F1667       F  0.37714764  0.93711999  0.79997788    -0.24100
F1668       F  0.40888293  0.91483769  0.79125895    -0.18100
F1669       F  0.30700231  0.90003008  0.74077539    -0.20600
F1670       F  0.27576852  0.92368877  0.74751291    -0.21800
F1671       F  0.29139680  0.90164145  0.77713521    -0.18900
F1672       F  0.34877755  0.01023871  0.79597771    -0.19000
F1673       F  0.36539272  0.00683083  0.76020402    -0.22900
F1674       F  0.38032618  0.98648805  0.79127602    -0.24500
C1675       C  0.73793174  0.94519825  0.33737102    -0.11300
C1676       C  0.75367793  0.95203349  0.35539543     0.11300
C1677       C  0.77804240  0.95558005  0.34989271    -0.03100
C1678       C  0.78568616  0.95272398  0.32627286    -0.05800
C1679       C  0.76974434  0.94689640  0.30808971    -0.16600
C1680       C  0.74544277  0.94300338  0.31363940     0.02300
C1681       C  0.74418148  0.95574197  0.37983684     0.12300
C1682       C  0.79579821  0.96278532  0.36884324     0.62900
H1683       H  0.80411441  0.95576661  0.32163965     0.12300
C1684       C  0.72744826  0.93688438  0.29452998     0.55000
H1685       H  0.71947378  0.94230751  0.34197547     0.08100
C1686       C  0.73316089  0.97729072  0.38669822    -0.05700
C1687       C  0.72729851  0.98065908  0.41074848    -0.06400
C1688       C  0.73186903  0.96313969  0.42785025    -0.16000
C1689       C  0.74077292  0.94082026  0.42062205    -0.01600
C1690       C  0.74683919  0.93748966  0.39662438    -0.09200
C1691       C  0.72800686  0.99676942  0.36876570     0.65100
H1692       H  0.72001507  0.99742039  0.41657774     0.10600
C1693       C  0.74353481  0.92061088  0.43824983     0.63500
H1694       H  0.75443995  0.92082896  0.39089061     0.07900
F1695       F  0.70543645  0.93136397  0.30399673    -0.19600
F1696       F  0.73529437  0.91753022  0.28177331    -0.15800
F1697       F  0.72450359  0.95596778  0.27937571    -0.19300
F1698       F  0.79732380  0.94526130  0.38595407    -0.22600
F1699       F  0.78862767  0.98370477  0.37932464    -0.24100
F1700       F  0.81831292  0.96626071  0.35958774    -0.18100
F1701       F  0.72206818  0.91669065  0.44953196    -0.20600
F1702       F  0.76060671  0.92616820  0.45496982    -0.21800
F1703       F  0.75027640  0.89975963  0.42728168    -0.18900
F1704       F  0.71776621  0.01643224  0.37924269    -0.19000
F1705       F  0.71241410  0.98847270  0.35176318    -0.22900
F1706       F  0.74882617  0.00388657  0.35790497    -0.24500
C1707       C  0.73488486  0.99341024  0.61032160    -0.11300
C1708       C  0.74926397  0.01309583  0.61543285     0.11300
C1709       C  0.75495079  0.02927314  0.59701241    -0.03100
C1710       C  0.74753577  0.02413203  0.57373095    -0.05800
C1711       C  0.73406121  0.00387926  0.56845430    -0.16600
C1712       C  0.72663309  0.98883272  0.58715877     0.02300
C1713       C  0.75991760  0.01510366  0.63962251     0.12300
C1714       C  0.76917249  0.05163833  0.60180990     0.62900
H1715       H  0.75299464  0.03548738  0.55921369     0.12300
C1716       C  0.71085946  0.96755996  0.58251705     0.55000
H1717       H  0.73089246  0.98111147  0.62452496     0.08100
C1718       C  0.74655636  0.02190342  0.65976565    -0.05700
C1719       C  0.75813153  0.02308913  0.68190806    -0.06400
C1720       C  0.78241570  0.01773246  0.68450428    -0.16000
C1721       C  0.79569615  0.01079438  0.66447424    -0.01600
C1722       C  0.78411182  0.00934969  0.64236004    -0.09200
C1723       C  0.72021243  0.02768213  0.65802228     0.65100
H1724       H  0.74818889  0.02792146  0.69757798     0.10600
C1725       C  0.82182404  0.00444619  0.66664453     0.63500
H1726       H  0.79388013  0.00361330  0.62689423     0.07900
F1727       F  0.70585451  0.95514784  0.60310974    -0.19600
F1728       F  0.72191593  0.95227491  0.56698935    -0.15800
F1729       F  0.68955254  0.97506313  0.57275944    -0.19300
F1730       F  0.79219400  0.04587007  0.60822524    -0.22600
F1731       F  0.75869166  0.06432310  0.61991661    -0.24100
F1732       F  0.77021040  0.06621075  0.58204571    -0.18100
F1733       F  0.82473812  0.98641106  0.68307241    -0.20600
F1734       F  0.83450598  0.02409239  0.67392446    -0.21800
F1735       F  0.83119057  0.99689360  0.64530593    -0.18900
F1736       F  0.71125939  0.03589972  0.67930123    -0.19000
F1737       F  0.70760335  0.00759990  0.65194696    -0.22900
F1738       F  0.71646752  0.04500554  0.64103196    -0.24500
C1739       C  0.69365859  0.12260841  0.43036873    -0.11300
C1740       C  0.71185849  0.12273364  0.44744063     0.11300
C1741       C  0.72381629  0.14417740  0.45263158    -0.03100
C1742       C  0.71625776  0.16515266  0.44121966    -0.05800
C1743       C  0.69793589  0.16499546  0.42427129    -0.16600
C1744       C  0.68672595  0.14342541  0.41838538     0.02300
C1745       C  0.71827505  0.09979912  0.45889373     0.12300
C1746       C  0.74512677  0.14466892  0.46920806     0.62900
H1747       H  0.72523999  0.18175203  0.44471002     0.12300
C1748       C  0.66820908  0.14244099  0.39885735     0.55000
H1749       H  0.68521039  0.10588590  0.42621828     0.08100
C1750       C  0.70509082  0.09058767  0.47813848    -0.05700
C1751       C  0.71054369  0.06772338  0.48659146    -0.06400
C1752       C  0.72832807  0.05363256  0.47619355    -0.16000
C1753       C  0.74172056  0.06302419  0.45704782    -0.01600
C1754       C  0.73644027  0.08609494  0.44878949    -0.09200
C1755       C  0.68488626  0.10459434  0.48924845     0.65100
H1756       H  0.70038206  0.06032234  0.50111275     0.10600
C1757       C  0.76061739  0.04846231  0.44459434     0.63500
H1758       H  0.74598971  0.09343771  0.43383267     0.07900
F1759       F  0.64942565  0.15727164  0.40431853    -0.19600
F1760       F  0.65939013  0.11976149  0.39580247    -0.15800
F1761       F  0.67826239  0.14972557  0.37770544    -0.19300
F1762       F  0.76334081  0.13126715  0.45972309    -0.22600
F1763       F  0.73912714  0.13545317  0.49109562    -0.24100
F1764       F  0.75350432  0.16748250  0.47255048    -0.18100
F1765       F  0.76989503  0.06024740  0.42514808    -0.20600
F1766       F  0.75093269  0.02738582  0.43675176    -0.21800
F1767       F  0.77911553  0.04369259  0.46007055    -0.18900
F1768       F  0.67462980  0.09250762  0.50800139    -0.19000
F1769       F  0.66734720  0.10890959  0.47258409    -0.30300
F1770       F  0.69325820  0.12598078  0.49766267    -0.24500
C1771       C  0.85243500  0.26509706  0.41600013    -0.11300
C1772       C  0.85152032  0.25117413  0.43665097     0.11300
C1773       C  0.82918978  0.24355627  0.44542224    -0.03100
C1774       C  0.80840881  0.25014244  0.43299712    -0.05800
C1775       C  0.80942092  0.26388269  0.41224061    -0.16600
C1776       C  0.83171009  0.27106471  0.40325661     0.02300
C1777       C  0.87433292  0.24557394  0.44894727     0.12300
C1778       C  0.82733158  0.22868950  0.46782588     0.62900
H1779       H  0.79112585  0.24458538  0.43936279     0.12300
C1780       C  0.83347741  0.28424146  0.37988157     0.55000
H1781       H  0.86965851  0.27091872  0.40971906     0.08100
C1782       C  0.89027719  0.22801530  0.44061124    -0.05700
C1783       C  0.91251116  0.22529398  0.45192757    -0.06400
C1784       C  0.91957242  0.24018428  0.47052118    -0.16000
C1785       C  0.90317497  0.25724716  0.47936530    -0.01600
C1786       C  0.88079267  0.25951820  0.46837103    -0.09200
C1787       C  0.88423525  0.21290488  0.41924037     0.65100
H1788       H  0.92521526  0.21252840  0.44525491     0.10600
C1789       C  0.90916520  0.27343657  0.50001153     0.63500
H1790       H  0.86843982  0.27302220  0.47422303     0.07900
F1791       F  0.85676349  0.28992814  0.37435360    -0.19600
F1792       F  0.82046561  0.30502090  0.38092567    -0.15800
F1793       F  0.82451854  0.27017181  0.36195328    -0.19300
F1794       F  0.83450429  0.24191485  0.48710409    -0.22600
F1795       F  0.84164810  0.20883401  0.46609955    -0.24100
F1796       F  0.80426219  0.22112845  0.47181888    -0.18100
F1797       F  0.92481157  0.29087004  0.49272151    -0.20600
F1798       F  0.91927562  0.26046575  0.51829381    -0.21800
F1799       F  0.88909187  0.28456079  0.50881792    -0.18900
F1800       F  0.90135684  0.19574404  0.41519083    -0.19000
F1801       F  0.88270116  0.22704121  0.39924598    -0.22900
F1802       F  0.86272326  0.20160506  0.42269838    -0.24500
C1803       C  0.27971495  0.43180564  0.85538645    -0.11300
C1804       C  0.25717619  0.44264395  0.85560377     0.11300
C1805       C  0.24363453  0.44335618  0.83443652    -0.03100
C1806       C  0.25269514  0.43216601  0.81406160    -0.05800
C1807       C  0.27478082  0.42033702  0.81405420    -0.16600
C1808       C  0.28863876  0.42026438  0.83506446     0.02300
C1809       C  0.24819058  0.45283117  0.87836277     0.12300
C1810       C  0.21958434  0.45564156  0.83343460     0.62900
H1811       H  0.24234859  0.43232115  0.79786221     0.12300
C1812       C  0.31222901  0.40725691  0.83636749     0.55000
H1813       H  0.29007355  0.43200251  0.87157852     0.08100
C1814       C  0.23958503  0.43829423  0.89707419    -0.05700
C1815       C  0.23291884  0.44899378  0.91862173    -0.06400
C1816       C  0.23518212  0.47345785  0.92220198    -0.16000
C1817       C  0.24240043  0.48808700  0.90314705    -0.01600
C1818       C  0.24896293  0.47751225  0.88151777    -0.09200
C1819       C  0.23806222  0.41153582  0.89457529     0.65100
H1820       H  0.22716409  0.43814168  0.93337907     0.10600
C1821       C  0.24340650  0.51475389  0.90598172     0.63500
H1822       H  0.25558538  0.48840558  0.86715071     0.07900
F1823       F  0.30923675  0.38393089  0.82953609    -0.19600
F1824       F  0.32156349  0.40725664  0.85908434    -0.15800
F1825       F  0.32846332  0.41810057  0.82155837    -0.19300
F1826       F  0.22242185  0.47968768  0.83701116    -0.22600
F1827       F  0.20478217  0.44655235  0.85074275    -0.24100
F1828       F  0.20851745  0.45260397  0.81174441    -0.18100
F1829       F  0.24828814  0.52610297  0.88476143    -0.20600
F1830       F  0.26096774  0.52058876  0.92207765    -0.21800
F1831       F  0.22171156  0.52294191  0.91412613    -0.18900
F1832       F  0.22799591  0.40098825  0.91433957    -0.19000
F1833       F  0.26055354  0.40208125  0.89173421    -0.22900
F1834       F  0.22427027  0.40585891  0.87511579    -0.24500
C1835       C  0.15211490  0.46188561  0.73924639    -0.11300
C1836       C  0.13317105  0.45707703  0.72384251     0.11300
C1837       C  0.13774101  0.44615055  0.70174092    -0.03100
C1838       C  0.16091982  0.43800296  0.69696072    -0.05800
C1839       C  0.17952779  0.44134913  0.71313393    -0.16600
C1840       C  0.17545014  0.45452164  0.73407128     0.02300
C1841       C  0.10889993  0.46470703  0.73092272     0.12300
C1842       C  0.11827804  0.44324397  0.68330282     0.62900
H1843       H  0.16458296  0.42835402  0.68082589     0.12300
C1844       C  0.19576309  0.46152094  0.75036052     0.55000
H1845       H  0.14837983  0.47135521  0.75547188     0.08100
C1846       C  0.09372521  0.45022322  0.74483420    -0.05700
C1847       C  0.07039787  0.45819855  0.74959648    -0.06400
C1848       C  0.06234748  0.48029880  0.74135402    -0.16000
C1849       C  0.07820538  0.49535952  0.72894463    -0.01600
C1850       C  0.10126464  0.48726147  0.72388888    -0.09200
C1851       C  0.10225698  0.42656151  0.75456511     0.65100
H1852       H  0.05806671  0.44697787  0.75915762     0.10600
C1853       C  0.07084158  0.52014242  0.72156802     0.63500
H1854       H  0.11347233  0.49833549  0.71399793     0.07900
F1855       F  0.20622255  0.44163150  0.76022688    -0.19600
F1856       F  0.18808431  0.47588894  0.76865553    -0.15800
F1857       F  0.21261260  0.47392575  0.73752847    -0.19300
F1858       F  0.10973919  0.46528288  0.67665518    -0.22600
F1859       F  0.09980572  0.42996496  0.69245398    -0.24100
F1860       F  0.12653710  0.43199802  0.66317078    -0.18100
F1861       F  0.08961689  0.53283911  0.71208173    -0.20600
F1862       F  0.06267853  0.53213749  0.74125471    -0.21800
F1863       F  0.05304435  0.51909676  0.70467683    -0.18900
F1864       F  0.08471535  0.41515235  0.76743435    -0.19000
F1865       F  0.12153188  0.43012062  0.76937282    -0.22900
F1866       F  0.10902676  0.41186440  0.73624665    -0.24500
C1867       C  0.96228517  0.34937679  0.79801674    -0.11300
C1868       C  0.95054824  0.35807104  0.77780254     0.11300
C1869       C  0.93425161  0.34334940  0.76559797    -0.03100
C1870       C  0.93077215  0.31997329  0.77378459    -0.05800
C1871       C  0.94314904  0.31109395  0.79353204    -0.16600
C1872       C  0.95872391  0.32606734  0.80619989     0.02300
C1873       C  0.95632911  0.38247256  0.76954786     0.12300
C1874       C  0.92126576  0.35204523  0.74359639     0.62900
H1875       H  0.91930713  0.30801642  0.76408268     0.12300
C1876       C  0.97165191  0.31718679  0.82811815     0.55000
H1877       H  0.97471772  0.36089744  0.80703712     0.08100
C1878       C  0.94693334  0.40274683  0.78082011    -0.05700
C1879       C  0.95418043  0.42524456  0.77289710    -0.06400
C1880       C  0.97045091  0.42818230  0.75419166    -0.16000
C1881       C  0.97975650  0.40785347  0.74282757    -0.01600
C1882       C  0.97252423  0.38524626  0.75081735    -0.09200
C1883       C  0.92982126  0.40064670  0.80154071     0.65100
H1884       H  0.94753340  0.44088853  0.78174122     0.10600
C1885       C  0.99799792  0.40995140  0.72318720     0.63500
H1886       H  0.97978062  0.36942931  0.74276456     0.07900
F1887       F  0.98537528  0.33473315  0.83838556    -0.19600
F1888       F  0.98644805  0.29851324  0.82229518    -0.15800
F1889       F  0.95520402  0.30955104  0.84464552    -0.19300
F1890       F  0.93740301  0.35609248  0.72560617    -0.22600
F1891       F  0.90929176  0.37288684  0.74841888    -0.24100
F1892       F  0.90480855  0.33565984  0.73564130    -0.18100
F1893       F  0.01732066  0.42293069  0.73101597    -0.20600
F1894       F  0.98790893  0.42113753  0.70378000    -0.21800
F1895       F  0.00617722  0.38798764  0.71597269    -0.18900
F1896       F  0.92086341  0.42249526  0.80819598    -0.19000
F1897       F  0.94143794  0.39088246  0.82085735    -0.22900
F1898       F  0.91081233  0.38635933  0.79551903    -0.24500
C1899       C  0.05307589  0.63390813  0.77986516    -0.11300
C1900       C  0.03987504  0.63500512  0.75873635     0.11300
C1901       C  0.03669190  0.65708213  0.74717050    -0.03100
C1902       C  0.04888078  0.67701712  0.75593601    -0.05800
C1903       C  0.06295809  0.67571397  0.77650068    -0.16600
C1904       C  0.06452377  0.65407289  0.78913833     0.02300
C1905       C  0.02906234  0.61276440  0.74961265     0.12300
C1906       C  0.02015392  0.65958017  0.72599761     0.62900
H1907       H  0.04754777  0.69387574  0.74677248     0.12300
C1908       C  0.07870475  0.65226817  0.81194319     0.55000
H1909       H  0.05458092  0.61697672  0.78886090     0.08100
C1910       C  0.04172178  0.59683946  0.73488451    -0.05700
C1911       C  0.03086798  0.57523883  0.72842365    -0.06400
C1912       C  0.00860501  0.56866473  0.73746842    -0.16000
C1913       C  0.99536976  0.58541944  0.75070946    -0.01600
C1914       C  0.00601564  0.60701644  0.75693929    -0.09200
C1915       C  0.06720148  0.60186948  0.72755328     0.65100
H1916       H  0.04051246  0.56254582  0.71786791     0.10600
C1917       C  0.97035676  0.58059168  0.75938197     0.63500
H1918       H  0.99646252  0.61934894  0.76812676     0.07900
F1919       F  0.10227880  0.65766179  0.80758391    -0.19600
F1920       F  0.07766848  0.62973590  0.82169141    -0.15800
F1921       F  0.06970801  0.66801634  0.82835523    -0.19300
F1922       F  0.99729848  0.65343485  0.73254914    -0.22600
F1923       F  0.02743775  0.64495536  0.70783598    -0.24100
F1924       F  0.01958664  0.68257845  0.71745789    -0.18100
F1925       F  0.97119168  0.57283555  0.78262095    -0.20600
F1926       F  0.95916101  0.56370644  0.74570325    -0.21800
F1927       F  0.95680704  0.60107194  0.75816906    -0.18900
F1928       F  0.07597771  0.58459591  0.71257455    -0.19000
F1929       F  0.08156086  0.60256286  0.74744955    -0.22900
F1930       F  0.06858796  0.62340050  0.71590581    -0.24500
C1931       C  0.97496853  0.77805343  0.39410178    -0.11300
C1932       C  0.96157603  0.76154466  0.38149918     0.11300
C1933       C  0.95988219  0.73797857  0.38995291    -0.03100
C1934       C  0.96781731  0.73288978  0.41315854    -0.05800
C1935       C  0.97917086  0.75023331  0.42694856    -0.16600
C1936       C  0.98485781  0.77249855  0.41626240     0.02300
C1937       C  0.94946957  0.76983809  0.35963856     0.12300
C1938       C  0.95078268  0.71833055  0.37409244     0.62900
H1939       H  0.96485466  0.71549724  0.42075833     0.12300
C1940       C  0.00188451  0.79021302  0.42744025     0.55000
H1941       H  0.97730613  0.79558801  0.38654986     0.08100
C1942       C  0.92594240  0.77886889  0.36015429    -0.05700
C1943       C  0.91574077  0.78721478  0.33893266    -0.06400
C1944       C  0.92848686  0.78727293  0.31763505    -0.16000
C1945       C  0.95227626  0.77889086  0.31728061    -0.01600
C1946       C  0.96244056  0.77040332  0.33849022    -0.09200
C1947       C  0.91171313  0.77968881  0.38301452     0.65100
H1948       H  0.89747270  0.79334166  0.33865588     0.10600
C1949       C  0.96666633  0.77839847  0.29455874     0.63500
H1950       H  0.98060657  0.76399560  0.33877514     0.07900
F1951       F  0.00984513  0.80666084  0.41099236    -0.19600
F1952       F  0.02163907  0.77847416  0.43631239    -0.15800
F1953       F  0.99076037  0.80251479  0.44541566    -0.19300
F1954       F  0.96544771  0.71653998  0.35454158    -0.22600
F1955       F  0.92790568  0.72310412  0.36648146    -0.24100
F1956       F  0.95073586  0.69664474  0.38564468    -0.18100
F1957       F  0.97023977  0.80129162  0.28653427    -0.20600
F1958       F  0.95472487  0.76561384  0.27740863    -0.21800
F1959       F  0.98872857  0.76796567  0.29790029    -0.18900
F1960       F  0.88940291  0.78955619  0.37957274    -0.19000
F1961       F  0.92358454  0.79320694  0.39961988    -0.22900
F1962       F  0.90866699  0.75706794  0.39194330    -0.24500
C1963       C  0.03425522  0.74733610  0.65743672    -0.11300
C1964       C  0.03984419  0.75711782  0.63531319     0.11300
C1965       C  0.05715639  0.77530694  0.63368175    -0.03100
C1966       C  0.06910332  0.78242997  0.65440701    -0.05800
C1967       C  0.06403974  0.77209981  0.67641531    -0.16600
C1968       C  0.04624505  0.75438431  0.67813895     0.02300
C1969       C  0.02657519  0.74873494  0.61418638     0.12300
C1970       C  0.06280120  0.78724594  0.61018565     0.62900
H1971       H  0.08264743  0.79603908  0.65359539     0.12300
C1972       C  0.04001790  0.74286663  0.70167385     0.55000
H1973       H  0.02057635  0.73386334  0.65825256     0.08100
C1974       C  0.03336317  0.72832103  0.60130121    -0.05700
C1975       C  0.02211480  0.72372651  0.57941493    -0.06400
C1976       C  0.00435423  0.73886048  0.57048847    -0.16000
C1977       C  0.99557299  0.75742938  0.58511016    -0.01600
C1978       C  0.00719029  0.76224314  0.60653183    -0.09200
C1979       C  0.05302437  0.71213977  0.61023617     0.65100
H1980       H  0.02837591  0.70938631  0.56835937     0.10600
C1981       C  0.97528932  0.77371966  0.57783596     0.63500
H1982       H  0.00174984  0.77735642  0.61702791     0.07900
F1983       F  0.02060883  0.72796063  0.69964606    -0.19600
F1984       F  0.03449171  0.76006730  0.71814749    -0.15800
F1985       F  0.05906179  0.72960484  0.70982094    -0.19300
F1986       F  0.04303229  0.79944069  0.60208779    -0.22600
F1987       F  0.06922594  0.77047562  0.59359422    -0.24100
F1988       F  0.08132850  0.80324205  0.61226451    -0.18100
F1989       F  0.95933796  0.76224773  0.56321693    -0.20600
F1990       F  0.98434913  0.79335467  0.56622733    -0.21800
F1991       F  0.96281393  0.78131220  0.59751952    -0.18900
F1992       F  0.05677521  0.69320734  0.59517708    -0.19000
F1993       F  0.04701284  0.70315315  0.63223550    -0.22900
F1994       F  0.07404829  0.72466302  0.61214229    -0.24500
C1995       C  0.13967044  0.69457521  0.47457516    -0.11300
C1996       C  0.13436608  0.71832031  0.46897929     0.11300
C1997       C  0.15264695  0.73336700  0.46057621    -0.03100
C1998       C  0.17567887  0.72396647  0.45778409    -0.05800
C1999       C  0.18099344  0.70022855  0.46329738    -0.16600
C2000       C  0.16278072  0.68521201  0.47182519     0.02300
C2001       C  0.10962574  0.72701719  0.47284052     0.12300
C2002       C  0.14792120  0.75929174  0.45485936     0.62900
H2003       H  0.18997234  0.73525999  0.45164006     0.12300
C2004       C  0.16803652  0.65974821  0.47879320     0.55000
H2005       H  0.12552747  0.68349702  0.48141697     0.08100
C2006       C  0.09102970  0.72194383  0.45669490    -0.05700
C2007       C  0.06777074  0.72904145  0.46239997    -0.06400
C2008       C  0.06249774  0.74090408  0.48356764    -0.16000
C2009       C  0.08115130  0.74684809  0.49929009    -0.01600
C2010       C  0.10451678  0.73957421  0.49371375    -0.09200
C2011       C  0.09556664  0.70862478  0.43378855     0.65100
H2012       H  0.05316094  0.72446879  0.45073974     0.10600
C2013       C  0.07621596  0.75996406  0.52214789     0.63500
H2014       H  0.11895798  0.74308600  0.50592325     0.07900
F2015       F  0.17655724  0.64750402  0.45942011    -0.19600
F2016       F  0.14793481  0.64817710  0.48693917    -0.15800
F2017       F  0.18496316  0.65928486  0.49660844    -0.19300
F2018       F  0.14057908  0.77102992  0.47499574    -0.22600
F2019       F  0.13040113  0.76115430  0.43774949    -0.24100
F2020       F  0.16806284  0.77058554  0.44644785    -0.18100
F2021       F  0.09688041  0.76428251  0.53479505    -0.20600
F2022       F  0.06114661  0.74673443  0.53629539    -0.21800
F2023       F  0.06563786  0.78153505  0.51704718    -0.18900
F2024       F  0.07503594  0.70622527  0.42041985    -0.19000
F2025       F  0.10411758  0.68616549  0.43871149    -0.22900
F2026       F  0.11206117  0.72067934  0.42024289    -0.24500
C2027       C  0.27809523  0.85385271  0.44337888    -0.11300
C2028       C  0.25342549  0.85598757  0.44650520     0.11300
C2029       C  0.23883028  0.83568915  0.44481362    -0.03100
C2030       C  0.24979595  0.81342734  0.44216270    -0.05800
C2031       C  0.27466092  0.81106598  0.44080240    -0.16600
C2032       C  0.28909228  0.83158371  0.44080456     0.02300
C2033       C  0.24393998  0.87939834  0.45383349     0.12300
C2034       C  0.21191309  0.83757048  0.44612716     0.62900
H2035       H  0.23904643  0.79751513  0.44180695     0.12300
C2036       C  0.31598690  0.82986718  0.43952456     0.55000
H2037       H  0.28879407  0.86977390  0.44430872     0.08100
C2038       C  0.24602127  0.88713130  0.47758359    -0.05700
C2039       C  0.23955866  0.91052016  0.48300788    -0.06400
C2040       C  0.23087008  0.92614299  0.46565389    -0.16000
C2041       C  0.22723581  0.91796237  0.44221768    -0.01600
C2042       C  0.23411293  0.89461592  0.43666697    -0.09200
C2043       C  0.25550677  0.87092709  0.49704685     0.65100
H2044       H  0.24206305  0.91714501  0.50083546     0.10600
C2045       C  0.21655531  0.93286611  0.42243473     0.63500
H2046       H  0.23235969  0.88839299  0.41860442     0.07900
F2047       F  0.32668068  0.85188287  0.44125919    -0.19600
F2048       F  0.32259732  0.82001371  0.41816434    -0.15800
F2049       F  0.32440192  0.81584221  0.45787912    -0.19300
F2050       F  0.20366275  0.85134690  0.42753861    -0.22600
F2051       F  0.20514546  0.84786738  0.46724061    -0.24100
F2052       F  0.20111930  0.81558393  0.44466772    -0.18100
F2053       F  0.23232946  0.93397246  0.40370231    -0.20600
F2054       F  0.21120888  0.95575494  0.42921477    -0.21800
F2055       F  0.19577310  0.92225932  0.41474953    -0.18900
F2056       F  0.25425046  0.88147447  0.51910956    -0.19000
F2057       F  0.27902589  0.86532031  0.49273682    -0.22900
F2058       F  0.24233775  0.85027766  0.49791121    -0.24500
C2059       C  0.83103984  0.53639213  0.72444138    -0.11300
C2060       C  0.84807274  0.52237664  0.71302921     0.11300
C2061       C  0.84172567  0.50960458  0.69237348    -0.03100
C2062       C  0.81825214  0.51137624  0.68383851    -0.05800
C2063       C  0.80131549  0.52565915  0.69506238    -0.16600
C2064       C  0.80766813  0.53842319  0.71569603     0.02300
C2065       C  0.87240080  0.52111393  0.72326703     0.12300
C2066       C  0.85965755  0.49425024  0.67937713     0.62900
H2067       H  0.81278838  0.50137249  0.66842568     0.12300
C2068       C  0.78971568  0.55366023  0.72871519     0.55000
H2069       H  0.83625318  0.54566828  0.74038003     0.08100
C2070       C  0.88970837  0.53859727  0.71832484    -0.05700
C2071       C  0.91328866  0.53452609  0.72563482    -0.06400
C2072       C  0.91972128  0.51415391  0.73849533    -0.16000
C2073       C  0.90203502  0.49748510  0.74485014    -0.01600
C2074       C  0.87845227  0.50144718  0.73734871    -0.09200
C2075       C  0.88331171  0.56124950  0.70513223     0.65100
H2076       H  0.92709544  0.54682870  0.72051506     0.10600
C2077       C  0.90844312  0.47478467  0.75782900     0.63500
H2078       H  0.86474268  0.48856884  0.74131040     0.07900
F2079       F  0.79939666  0.56379722  0.74883263    -0.19600
F2080       F  0.77047724  0.54002988  0.73555877    -0.15800
F2081       F  0.78196892  0.57176525  0.71403885    -0.19300
F2082       F  0.86822942  0.47668502  0.69425231    -0.22600
F2083       F  0.87842884  0.50804491  0.67168020    -0.24100
F2084       F  0.84967661  0.48335118  0.65980824    -0.18100
F2085       F  0.91930865  0.48010292  0.77914158    -0.20600
F2086       F  0.92381686  0.46160875  0.74405671    -0.21800
F2087       F  0.88862719  0.46103506  0.76255815    -0.18900
F2088       F  0.90291492  0.57569870  0.70184159    -0.19000
F2089       F  0.86667375  0.57384896  0.71796589    -0.22900
F2090       F  0.87393408  0.55595452  0.68313299    -0.24500
C2091       C  0.74731790  0.51066700  0.87575387    -0.11300
C2092       C  0.72348410  0.51488684  0.86952292     0.11300
C2093       C  0.70631816  0.51784448  0.88746525    -0.03100
C2094       C  0.71356572  0.51605023  0.91116751    -0.05800
C2095       C  0.73708230  0.51005096  0.91778695    -0.16600
C2096       C  0.75455300  0.50817775  0.89967383     0.02300
C2097       C  0.71626003  0.51382839  0.84420904     0.12300
C2098       C  0.68009054  0.52147258  0.88164451     0.62900
H2099       H  0.70024620  0.51819070  0.92478178     0.12300
C2100       C  0.78048203  0.50310221  0.90520684     0.55000
H2101       H  0.76005515  0.50841429  0.86158353     0.08100
C2102       C  0.71717256  0.53376138  0.82891933    -0.05700
C2103       C  0.70742263  0.53179005  0.80596696    -0.06400
C2104       C  0.69735999  0.51047674  0.79798199    -0.16000
C2105       C  0.69691176  0.49046882  0.81318073    -0.01600
C2106       C  0.70664110  0.49246541  0.83602828    -0.09200
C2107       C  0.72875112  0.55673889  0.83673460     0.65100
H2108       H  0.70805951  0.54671228  0.79385390     0.10600
C2109       C  0.68523688  0.46743362  0.80566352     0.63500
H2110       H  0.70625358  0.47746956  0.84806563     0.07900
F2111       F  0.79432201  0.50289543  0.88495541    -0.19600
F2112       F  0.78262011  0.48116204  0.91601504    -0.15800
F2113       F  0.78934768  0.52046935  0.92001238    -0.19300
F2114       F  0.67102309  0.50118721  0.87139398    -0.22600
F2115       F  0.67724360  0.54025861  0.86610989    -0.24100
F2116       F  0.66677116  0.52625536  0.90166245    -0.18100
F2117       F  0.68543208  0.45072433  0.82368908    -0.20600
F2118       F  0.69709186  0.45787252  0.78654605    -0.21800
F2119       F  0.66182285  0.47175489  0.79941712    -0.18900
F2120       F  0.72748951  0.57402213  0.81929095    -0.19000
F2121       F  0.75247222  0.55269256  0.84184866    -0.22900
F2122       F  0.71761744  0.56534844  0.85673951    -0.24500
C2123       C  0.74921539  0.60516950  0.00294280    -0.11300
C2124       C  0.76704357  0.60848336  0.02010391     0.11300
C2125       C  0.77671655  0.58866545  0.03213474    -0.03100
C2126       C  0.76866392  0.56597159  0.02599389    -0.05800
C2127       C  0.75136392  0.56244490  0.00834799    -0.16600
C2128       C  0.74141084  0.58230523  0.99652442     0.02300
C2129       C  0.77571292  0.63286340  0.02484039     0.12300
C2130       C  0.79586993  0.59143865  0.05098377     0.62900
H2131       H  0.77639522  0.55056239  0.03454356     0.12300
C2132       C  0.72362058  0.57931000  0.97652990     0.55000
H2133       H  0.74192213  0.62067803  0.99417865     0.08100
C2134       C  0.79242648  0.64420334  0.00987146    -0.05700
C2135       C  0.79989187  0.66726708  0.01551007    -0.06400
C2136       C  0.79123768  0.67911937  0.03546504    -0.16000
C2137       C  0.77476627  0.66770190  0.05062914    -0.01600
C2138       C  0.76721131  0.64463630  0.04495547    -0.09200
C2139       C  0.80193114  0.63225540  0.98776424     0.65100
H2140       H  0.81203513  0.67661891  0.00390992     0.10600
C2141       C  0.76451615  0.68014681  0.07209543     0.63500
H2142       H  0.75430547  0.63565007  0.05600136     0.07900
F2143       F  0.73293830  0.56455197  0.95936313    -0.19600
F2144       F  0.71802973  0.60075375  0.96585516    -0.15800
F2145       F  0.70289139  0.56952523  0.98529315    -0.19300
F2146       F  0.78693508  0.60399070  0.06995822    -0.22600
F2147       F  0.81517143  0.60345861  0.04174815    -0.24100
F2148       F  0.80385131  0.56974110  0.05937107    -0.18100
F2149       F  0.75183833  0.69992133  0.06489295    -0.20600
F2150       F  0.78267246  0.68704595  0.08708432    -0.21800
F2151       F  0.74935983  0.66556378  0.08480561    -0.18900
F2152       F  0.81935240  0.64572193  0.97684595    -0.19000
F2153       F  0.78363822  0.62898790  0.97172763    -0.22900
F2154       F  0.81175664  0.61050198  0.99349577    -0.24500
C2155       C  0.78918526  0.34426484  0.95648110    -0.11300
C2156       C  0.76480000  0.34877123  0.95956711     0.11300
C2157       C  0.74850961  0.32973409  0.95841474    -0.03100
C2158       C  0.75730987  0.30667116  0.95475201    -0.05800
C2159       C  0.78180210  0.30186766  0.95268380    -0.16600
C2160       C  0.79811035  0.32103223  0.95352951     0.02300
C2161       C  0.75699606  0.37343191  0.96520403     0.12300
C2162       C  0.72197517  0.33368742  0.96161237     0.62900
H2163       H  0.74498108  0.29198018  0.95387860     0.12300
C2164       C  0.82478961  0.31703608  0.95252459     0.55000
H2165       H  0.80128711  0.35916396  0.95712369     0.08100
C2166       C  0.75999508  0.38310895  0.98816076    -0.05700
C2167       C  0.75326284  0.40680706  0.99210867    -0.06400
C2168       C  0.74367497  0.42100342  0.97398967    -0.16000
C2169       C  0.73990710  0.41119027  0.95130110    -0.01600
C2170       C  0.74671782  0.38744899  0.94722527    -0.09200
C2171       C  0.77093121  0.36872812  0.00825244     0.65100
H2172       H  0.75646152  0.41485975  0.00921440     0.10600
C2173       C  0.72957712  0.42613871  0.93141064     0.63500
H2174       H  0.74466018  0.37981299  0.92977812     0.07900
F2175       F  0.83148782  0.30036987  0.96930881    -0.19600
F2176       F  0.83732805  0.33764750  0.95700822    -0.15800
F2177       F  0.83113866  0.30920199  0.93028204    -0.19300
F2178       F  0.71333423  0.34775742  0.94343654    -0.22600
F2179       F  0.71771447  0.34473675  0.98300423    -0.24100
F2180       F  0.70944507  0.31258167  0.96145563    -0.18100
F2181       F  0.74467900  0.44481896  0.92641695    -0.20600
F2182       F  0.70769341  0.43501590  0.93817970    -0.21800
F2183       F  0.72641649  0.41312189  0.91091797    -0.18900
F2184       F  0.76980904  0.38064034  0.02961496    -0.19000
F2185       F  0.79457566  0.36415699  0.00341543    -0.22900
F2186       F  0.75898417  0.34748767  0.01090501    -0.24500
C2187       C  0.65185301  0.74073628  0.03849763    -0.11300
C2188       C  0.63341634  0.75737447  0.03698998     0.11300
C2189       C  0.63826217  0.78150387  0.04204071    -0.03100
C2190       C  0.66200282  0.78843500  0.04633554    -0.05800
C2191       C  0.68072709  0.77195480  0.04633245    -0.16600
C2192       C  0.67537219  0.74745034  0.04368726     0.02300
C2193       C  0.60918983  0.74888824  0.03035600     0.12300
C2194       C  0.61849532  0.79986166  0.04257381     0.62900
H2195       H  0.66626376  0.80697396  0.04882859     0.12300
C2196       C  0.69327917  0.72748316  0.04684582     0.55000
H2197       H  0.64777627  0.72217653  0.03565773     0.08100
C2198       C  0.60207125  0.74652572  0.00637984    -0.05700
C2199       C  0.57840127  0.74007660  0.00135873    -0.06400
C2200       C  0.56188658  0.73567657  0.01942831    -0.16000
C2201       C  0.56929941  0.73690975  0.04337106    -0.01600
C2202       C  0.59305993  0.74316581  0.04845001    -0.09200
C2203       C  0.61930484  0.75111094  0.98619398     0.65100
H2204       H  0.57227956  0.73928631  0.98316952     0.10600
C2205       C  0.55180547  0.73287849  0.06335381     0.63500
H2206       H  0.59901212  0.74460570  0.06664418     0.07900
F2207       F  0.69613892  0.71578783  0.02555640    -0.19600
F2208       F  0.68472092  0.71157105  0.06347576    -0.15800
F2209       F  0.71524529  0.73505912  0.05469099    -0.19300
F2210       F  0.60168851  0.79345974  0.05923072    -0.22600
F2211       F  0.60769266  0.80145674  0.02061827    -0.24100
F2212       F  0.62696652  0.82210005  0.04848474    -0.18100
F2213       F  0.56263364  0.73433375  0.08535205    -0.20600
F2214       F  0.54180323  0.71060809  0.06127545    -0.21800
F2215       F  0.53405207  0.74983675  0.06225560    -0.18900
F2216       F  0.60858524  0.74824003  0.96428674    -0.19000
F2217       F  0.63814431  0.73541223  0.98769410    -0.22900
F2218       F  0.62792200  0.77399858  0.98737588    -0.24500
C2219       C  0.33423748  0.76593566  0.95336757    -0.11300
C2220       C  0.35532897  0.76223121  0.94067411     0.11300
C2221       C  0.35543774  0.76574222  0.91579477    -0.03100
C2222       C  0.33440190  0.77346981  0.90451697    -0.05800
C2223       C  0.31349222  0.77782717  0.91729487    -0.16600
C2224       C  0.31321261  0.77374546  0.94211095     0.02300
C2225       C  0.37738468  0.75587985  0.95403477     0.12300
C2226       C  0.37764489  0.76115487  0.90123623     0.62900
H2227       H  0.33399991  0.77592174  0.88548116     0.12300
C2228       C  0.29069011  0.77698920  0.95654868     0.55000
H2229       H  0.33448915  0.76280327  0.97230331     0.08100
C2230       C  0.39086348  0.77333281  0.96587235    -0.05700
C2231       C  0.41243221  0.76668189  0.97663212    -0.06400
C2232       C  0.42141625  0.74333391  0.97561410    -0.16000
C2233       C  0.40733557  0.72562101  0.96450279    -0.01600
C2234       C  0.38533221  0.73225766  0.95417406    -0.09200
C2235       C  0.38275882  0.79906136  0.96666623     0.65100
H2236       H  0.42280396  0.78008266  0.98560161     0.10600
C2237       C  0.41567537  0.70011385  0.96265133     0.63500
H2238       H  0.37439854  0.71915761  0.94540487     0.07900
F2239       F  0.29407398  0.77096619  0.98011221    -0.19600
F2240       F  0.27280540  0.76277801  0.94759023    -0.15800
F2241       F  0.28352340  0.80040834  0.95566164    -0.19300
F2242       F  0.38364076  0.73741996  0.90258971    -0.22600
F2243       F  0.39634841  0.77456772  0.90973005    -0.24100
F2244       F  0.37431473  0.76690599  0.87759760    -0.18100
F2245       F  0.41832426  0.69050664  0.98507679    -0.20600
F2246       F  0.43715903  0.69924125  0.95078659    -0.21800
F2247       F  0.39960336  0.68618773  0.95038562    -0.18900
F2248       F  0.39927133  0.81346074  0.97773919    -0.19000
F2249       F  0.36164646  0.80075643  0.97902848    -0.22900
F2250       F  0.37936957  0.80762906  0.94392215    -0.24500
C2251       C  0.69687584  0.46077312  0.13567142    -0.11300
C2252       C  0.72013056  0.45406008  0.12961344     0.11300
C2253       C  0.73494221  0.44313712  0.14680119    -0.03100
C2254       C  0.72597635  0.43959459  0.16981903    -0.05800
C2255       C  0.70293596  0.44684993  0.17597584    -0.16600
C2256       C  0.68798392  0.45728009  0.15870202     0.02300
C2257       C  0.72862753  0.45927549  0.10523308     0.12300
C2258       C  0.76032903  0.43604706  0.14101056     0.62900
H2259       H  0.73724310  0.43206436  0.18350994     0.12300
C2260       C  0.66294528  0.46505249  0.16492729     0.55000
H2261       H  0.68591173  0.46923614  0.12228571     0.08100
C2262       C  0.72265965  0.44459852  0.08585649    -0.05700
C2263       C  0.73042858  0.45115073  0.06311308    -0.06400
C2264       C  0.74305976  0.47222652  0.05909192    -0.16000
C2265       C  0.74894972  0.48697222  0.07841848    -0.01600
C2266       C  0.74191786  0.48000713  0.10136912    -0.09200
C2267       C  0.70707685  0.42283286  0.08898097     0.65100
H2268       H  0.72540756  0.44055744  0.04793775     0.10600
C2269       C  0.76116921  0.51058946  0.07452012     0.63500
H2270       H  0.74587540  0.49118517  0.11641783     0.07900
F2271       F  0.65034150  0.44590367  0.17369066    -0.19600
F2272       F  0.65085564  0.47392164  0.14542300    -0.15800
F2273       F  0.66379156  0.48256506  0.18197683    -0.19300
F2274       F  0.77362073  0.45608822  0.13623982    -0.22600
F2275       F  0.76067669  0.42143129  0.12142177    -0.24100
F2276       F  0.77102694  0.42401296  0.15961622    -0.18100
F2277       F  0.74692563  0.52495427  0.06052324    -0.20600
F2278       F  0.78273150  0.50706279  0.06334451    -0.21800
F2279       F  0.76542489  0.52225204  0.09563496    -0.18900
F2280       F  0.70514881  0.40998922  0.06822326    -0.19000
F2281       F  0.68447635  0.42972020  0.09568210    -0.22900
F2282       F  0.71648647  0.40804764  0.10619221    -0.24500
C2283       C  0.84719401  0.47574783  0.29060086    -0.11300
C2284       C  0.85168839  0.46867300  0.26720146     0.11300
C2285       C  0.83308944  0.45878415  0.25352453    -0.03100
C2286       C  0.81012739  0.45761448  0.26336971    -0.05800
C2287       C  0.80539662  0.46557805  0.28644569    -0.16600
C2288       C  0.82419195  0.47457837  0.30043433     0.02300
C2289       C  0.87614525  0.47182886  0.25762733     0.12300
C2290       C  0.83752867  0.44949596  0.22870430     0.62900
H2291       H  0.79550698  0.45066722  0.25299312     0.12300
C2292       C  0.81967238  0.48385793  0.32517835     0.55000
H2293       H  0.86181624  0.48282677  0.30088218     0.08100
C2294       C  0.88406176  0.49381724  0.24828954    -0.05700
C2295       C  0.90782884  0.49583819  0.24065208    -0.06400
C2296       C  0.92407348  0.47718399  0.24358805    -0.16000
C2297       C  0.91615393  0.45520214  0.25288635    -0.01600
C2298       C  0.89210817  0.45277627  0.25937511    -0.09200
C2299       C  0.86785308  0.51538264  0.24760080     0.65100
H2300       H  0.91435297  0.51256047  0.23382208     0.10600
C2301       C  0.93322998  0.43463467  0.25657727     0.63500
H2302       H  0.88578896  0.43626760  0.26691410     0.07900
F2303       F  0.80358457  0.50240533  0.32411888    -0.19600
F2304       F  0.84031260  0.49201895  0.33576884    -0.15800
F2305       F  0.81048398  0.46598161  0.33923011    -0.19300
F2306       F  0.85382401  0.43114612  0.22962412    -0.22600
F2307       F  0.84638961  0.46734881  0.21442320    -0.24100
F2308       F  0.81691119  0.44101110  0.21832595    -0.18100
F2309       F  0.92137147  0.41391962  0.26235387    -0.20600
F2310       F  0.94881223  0.43979663  0.27481115    -0.21800
F2311       F  0.94600234  0.43066006  0.23606077    -0.18900
F2312       F  0.87895115  0.53483035  0.23749739    -0.19000
F2313       F  0.86130300  0.52141304  0.27038006    -0.22900
F2314       F  0.84764352  0.51054346  0.23453847    -0.24500
C2315       C  0.42494922  0.70931746  0.13426943    -0.11300
C2316       C  0.43714090  0.73102049  0.13475109     0.11300
C2317       C  0.43644192  0.74510655  0.15538755    -0.03100
C2318       C  0.42445289  0.73628620  0.17543278    -0.05800
C2319       C  0.41289251  0.71420101  0.17521190    -0.16600
C2320       C  0.41270596  0.70064909  0.15422028     0.02300
C2321       C  0.45036068  0.73824647  0.11314016     0.12300
C2322       C  0.44807990  0.76935599  0.15614736     0.62900
H2323       H  0.42390846  0.74665016  0.19152976     0.12300
C2324       C  0.39911650  0.67750858  0.15277108     0.55000
H2325       H  0.42527058  0.69912072  0.11805797     0.08100
C2326       C  0.47261070  0.72800551  0.10749716    -0.05700
C2327       C  0.48219763  0.73216346  0.08490622    -0.06400
C2328       C  0.47040176  0.74627649  0.06800614    -0.16000
C2329       C  0.44908676  0.75800890  0.07430387    -0.01600
C2330       C  0.43926346  0.75360787  0.09686389    -0.09200
C2331       C  0.48557801  0.71174144  0.12477278     0.65100
H2332       H  0.49833631  0.72311758  0.07969277     0.10600
C2333       C  0.43610153  0.77385437  0.05677694     0.63500
H2334       H  0.42220856  0.76117347  0.10154718     0.07900
F2335       F  0.40932778  0.66099689  0.16782320    -0.19600
F2336       F  0.39924928  0.66832587  0.13006829    -0.15800
F2337       F  0.37569111  0.68113525  0.15928553    -0.19300
F2338       F  0.43787769  0.78404937  0.13930981    -0.22600
F2339       F  0.47214935  0.76739188  0.15166708    -0.24100
F2340       F  0.44529168  0.77994333  0.17800356    -0.18100
F2341       F  0.42945314  0.76086089  0.03713278    -0.20600
F2342       F  0.45087930  0.79214834  0.04978789    -0.21800
F2343       F  0.41582759  0.78373230  0.06652355    -0.18900
F2344       F  0.50806999  0.70585928  0.11675079    -0.19000
F2345       F  0.47286593  0.69101325  0.12782093    -0.22900
F2346       F  0.48812186  0.72275022  0.14645003    -0.24500
C2347       C  0.47638603  0.88388364  0.25058229    -0.11300
C2348       C  0.45240828  0.87910006  0.24572340     0.11300
C2349       C  0.43831926  0.89643891  0.23402206    -0.03100
C2350       C  0.44886318  0.91819344  0.22759264    -0.05800
C2351       C  0.47257873  0.92329240  0.23332913    -0.16600
C2352       C  0.48680428  0.90572429  0.24449165     0.02300
C2353       C  0.44231395  0.85628118  0.25439874     0.12300
C2354       C  0.41202836  0.89240044  0.22936622     0.62900
H2355       H  0.43824954  0.93198806  0.21935057     0.12300
C2356       C  0.51294822  0.91000251  0.24974795     0.55000
H2357       H  0.48675476  0.87047272  0.25973507     0.08100
C2358       C  0.44484569  0.83487425  0.24163989    -0.05700
C2359       C  0.43419884  0.81415059  0.25071971    -0.06400
C2360       C  0.42190984  0.81412173  0.27235665    -0.16000
C2361       C  0.42045783  0.83523366  0.28567749    -0.01600
C2362       C  0.43080845  0.85604851  0.27646066    -0.09200
C2363       C  0.45841804  0.83398719  0.21841735     0.65100
H2364       H  0.43510203  0.79777117  0.24081467     0.10600
C2365       C  0.40738638  0.83581001  0.30913234     0.63500
H2366       H  0.42973677  0.87247676  0.28626021     0.07900
F2367       F  0.52414243  0.88972292  0.25805680    -0.19600
F2368       F  0.51543454  0.92740850  0.26671857    -0.15800
F2369       F  0.52433720  0.91709672  0.22924428    -0.19300
F2370       F  0.40017954  0.88954742  0.25060728    -0.22600
F2371       F  0.40890610  0.87231268  0.21581250    -0.24100
F2372       F  0.40175637  0.91130992  0.21742097    -0.18100
F2373       F  0.41824535  0.82050448  0.32500168    -0.20600
F2374       F  0.38401809  0.82890964  0.30583010    -0.21800
F2375       F  0.40736775  0.85824291  0.31896255    -0.18900
F2376       F  0.46050190  0.81106456  0.21013080    -0.19000
F2377       F  0.48114771  0.84276146  0.22141508    -0.22900
F2378       F  0.44676582  0.84737345  0.20143288    -0.24500
C2379       C  0.54158362  0.88820757  0.70768690    -0.11300
C2380       C  0.52938754  0.86965587  0.71878580     0.11300
C2381       C  0.51343828  0.87473481  0.73749173    -0.03100
C2382       C  0.50825423  0.89859764  0.74272537    -0.05800
C2383       C  0.51886760  0.91727557  0.73012994    -0.16600
C2384       C  0.53679948  0.91204773  0.71317360     0.02300
C2385       C  0.53266643  0.84517795  0.70962014     0.12300
C2386       C  0.50195149  0.85498463  0.75174502     0.62900
H2387       H  0.49518275  0.90282898  0.75612030     0.12300
C2388       C  0.55082543  0.93134693  0.70063551     0.55000
H2389       H  0.55426252  0.88386856  0.69394089     0.08100
C2390       C  0.51917884  0.83662015  0.69019908    -0.05700
C2391       C  0.52103949  0.81251171  0.68408952    -0.06400
C2392       C  0.53650954  0.79720759  0.69621962    -0.16000
C2393       C  0.55135296  0.80619525  0.71438226    -0.01600
C2394       C  0.54909812  0.83017186  0.72087744    -0.09200
C2395       C  0.50280157  0.85289476  0.67616213     0.65100
H2396       H  0.51002187  0.80526061  0.67013175     0.10600
C2397       C  0.56922816  0.79036177  0.72698279     0.63500
H2398       H  0.55971039  0.83728553  0.73520660     0.07900
F2399       F  0.57134478  0.92240113  0.69047317    -0.19600
F2400       F  0.55754218  0.94867753  0.71655739    -0.15800
F2401       F  0.53710235  0.94137930  0.68288311    -0.19300
F2402       F  0.51939770  0.84217459  0.76344465    -0.22600
F2403       F  0.48946158  0.83999630  0.73694844    -0.24100
F2404       F  0.48631945  0.86370142  0.76850862    -0.18100
F2405       F  0.58466187  0.78069710  0.71059965    -0.20600
F2406       F  0.55756214  0.77228157  0.73876060    -0.21800
F2407       F  0.58257579  0.80277867  0.74338951    -0.18900
F2408       F  0.49109323  0.84094313  0.65823213    -0.19000
F2409       F  0.51595076  0.87088028  0.66589600    -0.22900
F2410       F  0.48588207  0.86268907  0.69092455    -0.24500
C2411       C  0.54454932  0.69408630  0.84934990    -0.11300
C2412       C  0.52196464  0.69201316  0.85961812     0.11300
C2413       C  0.50323984  0.68152459  0.84651967    -0.03100
C2414       C  0.50761938  0.67442895  0.82301761    -0.05800
C2415       C  0.53007930  0.67706836  0.81245482    -0.16600
C2416       C  0.54907460  0.68652022  0.82601779     0.02300
C2417       C  0.51846900  0.70127668  0.88405769     0.12300
C2418       C  0.47864416  0.67827899  0.85714994     0.62900
H2419       H  0.49322415  0.66749848  0.81231847     0.12300
C2420       C  0.57381142  0.68934770  0.81575289     0.55000
H2421       H  0.55857812  0.70209933  0.85975038     0.08100
C2422       C  0.52596744  0.68839000  0.90426610    -0.05700
C2423       C  0.52162441  0.69795177  0.92680589    -0.06400
C2424       C  0.51023178  0.71997937  0.92989540    -0.16000
C2425       C  0.50327627  0.73318763  0.90955619    -0.01600
C2426       C  0.50768780  0.72356423  0.88691843    -0.09200
C2427       C  0.53864562  0.66468740  0.90205772     0.65100
H2428       H  0.52715295  0.68811865  0.94238941     0.10600
C2429       C  0.49065815  0.75689558  0.91159888     0.63500
H2430       H  0.50252371  0.73327076  0.87113312     0.07900
F2431       F  0.58291510  0.66731962  0.81014985    -0.19600
F2432       F  0.58928417  0.69989700  0.83163645    -0.15800
F2433       F  0.57291407  0.70331534  0.79558733    -0.19300
F2434       F  0.46845499  0.70014494  0.86143472    -0.22600
F2435       F  0.48024302  0.66580645  0.87822625    -0.24100
F2436       F  0.46369389  0.66585397  0.84216085    -0.18100
F2437       F  0.50570420  0.77323018  0.92196789    -0.20600
F2438       F  0.47037617  0.75444593  0.92522698    -0.21800
F2439       F  0.48387973  0.76573985  0.88968914    -0.18900
F2440       F  0.54181262  0.65380843  0.92386723    -0.19000
F2441       F  0.56079494  0.66809589  0.89206198    -0.22900
F2442       F  0.52563303  0.64948716  0.88793689    -0.24500
C2443       C  0.85026963  0.68385418  0.54465923    -0.11300
C2444       C  0.85037269  0.70523009  0.53175420     0.11300
C2445       C  0.82853293  0.71674828  0.52667545    -0.03100
C2446       C  0.80744156  0.70735894  0.53626457    -0.05800
C2447       C  0.80755391  0.68689079  0.55048728    -0.16600
C2448       C  0.82912826  0.67459991  0.55440665     0.02300
C2449       C  0.87370913  0.71576389  0.52488973     0.12300
C2450       C  0.82760889  0.73923085  0.51180542     0.62900
H2451       H  0.79069281  0.71649831  0.53355295     0.12300
C2452       C  0.82975213  0.65237107  0.56958382     0.55000
H2453       H  0.86708459  0.67500246  0.54785442     0.08100
C2454       C  0.88821332  0.72788520  0.54148455    -0.05700
C2455       C  0.91057455  0.73645440  0.53416093    -0.06400
C2456       C  0.91878358  0.73322170  0.51097757    -0.16000
C2457       C  0.90368700  0.72238079  0.49405038    -0.01600
C2458       C  0.88145970  0.71352335  0.50140630    -0.09200
C2459       C  0.88040789  0.73115175  0.56701089     0.65100
H2460       H  0.92238455  0.74452226  0.54689477     0.10600
C2461       C  0.91102179  0.72038588  0.46826528     0.63500
H2462       H  0.87013945  0.70428936  0.48895586     0.07900
F2463       F  0.82132186  0.65733529  0.59202802    -0.19600
F2464       F  0.85256500  0.64336552  0.57182380    -0.15800
F2465       F  0.81557439  0.63518225  0.55938723    -0.19300
F2466       F  0.83545407  0.73450107  0.48913073    -0.22600
F2467       F  0.84192449  0.75643580  0.52177021    -0.24100
F2468       F  0.80475083  0.74824709  0.51012669    -0.18100
F2469       F  0.92953970  0.70443083  0.46602042    -0.20600
F2470       F  0.91824599  0.74233037  0.45997236    -0.21800
F2471       F  0.89240566  0.71275440  0.45413852    -0.18900
F2472       F  0.89604383  0.74535349  0.57951170    -0.19000
F2473       F  0.87933979  0.70939320  0.57829065    -0.22900
F2474       F  0.85822019  0.74172167  0.56768652    -0.24500
C2475       C  0.69652645  0.84135422  0.56609699    -0.11300
C2476       C  0.71345515  0.84322901  0.54791331     0.11300
C2477       C  0.72538466  0.82261070  0.53996062    -0.03100
C2478       C  0.71986355  0.80068435  0.55058287    -0.05800
C2479       C  0.70279380  0.79880651  0.56859207    -0.16600
C2480       C  0.69082732  0.81933689  0.57649474     0.02300
C2481       C  0.71827547  0.86707012  0.53755321     0.12300
C2482       C  0.74383417  0.82376093  0.52036127     0.62900
H2483       H  0.72899725  0.78473532  0.54503176     0.12300
C2484       C  0.67269365  0.81793893  0.59629336     0.55000
H2485       H  0.68786855  0.85737923  0.57214038     0.08100
C2486       C  0.70247942  0.87782224  0.52121912    -0.05700
C2487       C  0.70766212  0.90072201  0.51281699    -0.06400
C2488       C  0.72819198  0.91317506  0.51987456    -0.16000
C2489       C  0.74470243  0.90177178  0.53529336    -0.01600
C2490       C  0.73902067  0.87910285  0.54435064    -0.09200
C2491       C  0.68007306  0.86527788  0.51287494     0.65100
H2492       H  0.69534161  0.90927034  0.50073125     0.10600
C2493       C  0.76813694  0.91316640  0.54226990     0.63500
H2494       H  0.75080759  0.87044095  0.55687904     0.07900
F2495       F  0.66319321  0.83994282  0.60153848    -0.19600
F2496       F  0.68338153  0.80901323  0.61654839    -0.15800
F2497       F  0.65423462  0.80318138  0.58972766    -0.19300
F2498       F  0.76307868  0.83709755  0.52764024    -0.22600
F2499       F  0.73403513  0.83400964  0.50030314    -0.24100
F2500       F  0.75210687  0.80146912  0.51432879    -0.18100
F2501       F  0.76410391  0.93457861  0.55335806    -0.20600
F2502       F  0.78180289  0.91682605  0.52225875    -0.21800
F2503       F  0.78111938  0.89897743  0.55765504    -0.18900
F2504       F  0.66850068  0.87786815  0.49516890    -0.19000
F2505       F  0.66448863  0.86259107  0.53157944    -0.22900
F2506       F  0.68573644  0.84318765  0.50398816    -0.24500
C2507       C  0.04758837  0.90607498  0.92461539    -0.11300
C2508       C  0.05307095  0.92988341  0.92885744     0.11300
C2509       C  0.07475375  0.93895524  0.91998928    -0.03100
C2510       C  0.08928530  0.92431119  0.90572258    -0.05800
C2511       C  0.08342106  0.90052131  0.90014102    -0.16600
C2512       C  0.06282777  0.89083542  0.91172139     0.02300
C2513       C  0.03671058  0.94427215  0.94429330     0.12300
C2514       C  0.08286638  0.96388862  0.92617540     0.62900
H2515       H  0.10602666  0.93140565  0.89979937     0.12300
C2516       C  0.05577184  0.86477668  0.91165098     0.55000
H2517       H  0.03137980  0.89908177  0.93229327     0.08100
C2518       C  0.01770507  0.95771837  0.93508714    -0.05700
C2519       C  0.00450532  0.97243301  0.95044283    -0.06400
C2520       C  0.00717594  0.97248160  0.97561941    -0.16000
C2521       C  0.02638918  0.95765169  0.98475304    -0.01600
C2522       C  0.04059658  0.94442691  0.96872620    -0.09200
C2523       C  0.01089033  0.95591208  0.90907213     0.65100
H2524       H  0.99181990  0.98396091  0.94211683     0.10600
C2525       C  0.03495783  0.95685885  0.01052034     0.63500
H2526       H  0.05561391  0.93420476  0.97516365     0.07900
F2527       F  0.03852283  0.86111330  0.89457140    -0.19600
F2528       F  0.04637599  0.85847855  0.93344085    -0.15800
F2529       F  0.07467745  0.84971795  0.90776986    -0.19300
F2530       F  0.08595425  0.96567871  0.95039851    -0.22600
F2531       F  0.06608214  0.98031092  0.91893671    -0.24100
F2532       F  0.10421010  0.96963620  0.91542196    -0.18100
F2533       F  0.04780551  0.93637288  0.01515766    -0.20600
F2534       F  0.01672585  0.95694210  0.02663882    -0.21800
F2535       F  0.04978646  0.97588644  0.01473775    -0.18900
F2536       F  0.99164154  0.97019812  0.90339899    -0.19000
F2537       F  0.00477542  0.93275001  0.90398090    -0.22900
F2538       F  0.02973474  0.96251481  0.89486121    -0.24500
C2539       C  0.94261568  0.96714364  0.03947752    -0.11300
C2540       C  0.94517897  0.94252949  0.03873235     0.11300
C2541       C  0.96076076  0.93274710  0.02180778    -0.03100
C2542       C  0.97432048  0.94805972  0.00739200    -0.05800
C2543       C  0.97318336  0.97331312  0.00839830    -0.16600
C2544       C  0.95521483  0.98284575  0.02432918     0.02300
C2545       C  0.93027867  0.92798848  0.05539242     0.12300
C2546       C  0.96382504  0.90628735  0.01772975     0.62900
H2547       H  0.98580445  0.93941621  0.99486449     0.12300
C2548       C  0.94662469  0.00869349  0.02474535     0.55000
H2549       H  0.92959923  0.97389810  0.05183934     0.08100
C2550       C  0.93917632  0.91947400  0.07723278    -0.05700
C2551       C  0.92400917  0.90636813  0.09228915    -0.06400
C2552       C  0.89992685  0.90142103  0.08663491    -0.16000
C2553       C  0.89047267  0.91270904  0.06576733    -0.01600
C2554       C  0.90615822  0.92456953  0.05012118    -0.09200
C2555       C  0.96457945  0.92471563  0.08479540     0.65100
H2556       H  0.93103577  0.90083508  0.10917057     0.10600
C2557       C  0.86428630  0.91368807  0.05875873     0.63500
H2558       H  0.89926872  0.93214403  0.03379856     0.07900
F2559       F  0.93218995  0.01325275  0.04405251    -0.19600
F2560       F  0.93314015  0.01337164  0.00480670    -0.15800
F2561       F  0.96498505  0.02465125  0.02617644    -0.19300
F2562       F  0.95835554  0.90118315  0.99440418    -0.22600
F2563       F  0.94955216  0.89238786  0.03200652    -0.24100
F2564       F  0.98727858  0.90007252  0.02191524    -0.18100
F2565       F  0.85852126  0.93646805  0.05151038    -0.20600
F2566       F  0.84886167  0.90809512  0.07684257    -0.21800
F2567       F  0.86036949  0.89845400  0.04003861    -0.18900
F2568       F  0.96976929  0.91545137  0.10695590    -0.19000
F2569       F  0.96804606  0.94896074  0.08560192    -0.22900
F2570       F  0.98033796  0.91496976  0.06882339    -0.24500
C2571       C  0.94123976  0.01106504  0.94528785    -0.11300
C2572       C  0.94404414  0.03564697  0.94607143     0.11300
C2573       C  0.95906475  0.04528294  0.96350727    -0.03100
C2574       C  0.97331642  0.02990787  0.97732644    -0.05800
C2575       C  0.97230559  0.00464725  0.97594018    -0.16600
C2576       C  0.95356263  0.99534446  0.96075398     0.02300
C2577       C  0.92939527  0.05087369  0.92966653     0.12300
C2578       C  0.95920230  0.07180491  0.96821992     0.62900
H2579       H  0.98497565  0.03821723  0.98985007     0.12300
C2580       C  0.94423317  0.96979078  0.96138916     0.55000
H2581       H  0.92815169  0.00442818  0.93290270     0.08100
C2582       C  0.93781356  0.05850067  0.90732922    -0.05700
C2583       C  0.92336258  0.07361957  0.89325683    -0.06400
C2584       C  0.89992684  0.08011152  0.89982817    -0.16000
C2585       C  0.89035179  0.06861467  0.92048810    -0.01600
C2586       C  0.90581754  0.05591788  0.93574712    -0.09200
C2587       C  0.96153300  0.04965663  0.89798409     0.65100
H2588       H  0.93014612  0.07949400  0.87637467     0.10600
C2589       C  0.86413624  0.06780335  0.92724757     0.63500
H2590       H  0.89902560  0.04865395  0.95220925     0.07900
F2591       F  0.93182859  0.96598372  0.98212167    -0.19600
F2592       F  0.96206474  0.95323213  0.95943322    -0.15800
F2593       F  0.92852520  0.96531104  0.94302045    -0.19300
F2594       F  0.93655320  0.07908048  0.97437371    -0.22600
F2595       F  0.96626412  0.08405481  0.94821810    -0.24100
F2596       F  0.97442154  0.07778520  0.98655555    -0.18100
F2597       F  0.85834048  0.04521631  0.93501204    -0.20600
F2598       F  0.84897808  0.07282638  0.90867539    -0.21800
F2599       F  0.85994064  0.08348762  0.94551693    -0.18900
F2600       F  0.96627301  0.05834356  0.87552759    -0.19000
F2601       F  0.96118611  0.02517393  0.89679788    -0.22900
F2602       F  0.97981357  0.05651730  0.91282174    -0.24500
C2603       C  0.03945990  0.03589458  0.01100221    -0.11300
C2604       C  0.03722615  0.03602654  0.03563883     0.11300
C2605       C  0.02089199  0.02037905  0.04625292    -0.03100
C2606       C  0.00747920  0.00494397  0.03180293    -0.05800
C2607       C  0.00825988  0.00509921  0.00653512    -0.16600
C2608       C  0.02617958  0.02053302  0.99612304     0.02300
C2609       C  0.05263422  0.05254248  0.04988706     0.12300
C2610       C  0.01719610  0.02046103  0.07292952     0.62900
H2611       H  0.99586599  0.99285706  0.04083192     0.12300
C2612       C  0.03358111  0.02043088  0.96998479     0.55000
H2613       H  0.05260180  0.04776088  0.00356178     0.08100
C2614       C  0.07630946  0.04686684  0.05631740    -0.05700
C2615       C  0.08943561  0.06298485  0.07035147    -0.06400
C2616       C  0.08021234  0.08513444  0.07777864    -0.16000
C2617       C  0.05757621  0.09199719  0.06801957    -0.01600
C2618       C  0.04380587  0.07500276  0.05569604    -0.09200
C2619       C  0.08786246  0.02404169  0.04788405     0.65100
H2620       H  0.10753593  0.05847929  0.07494321     0.10600
C2621       C  0.04731293  0.11697124  0.06873263     0.63500
H2622       H  0.02609311  0.07963665  0.04959691     0.07900
F2623       F  0.04685811  0.00040583  0.96536316    -0.19600
F2624       F  0.04773407  0.03969699  0.96431465    -0.15800
F2625       F  0.01446119  0.02141416  0.95478954    -0.19300
F2626       F  0.00879432  0.04240602  0.07984094    -0.22600
F2627       F  0.03843657  0.01593503  0.08446279    -0.24100
F2628       F  0.00090995  0.00353269  0.08012796    -0.18100
F2629       F  0.03522035  0.12189632  0.04788052    -0.20600
F2630       F  0.06466812  0.13411154  0.07084911    -0.21800
F2631       F  0.03133751  0.11876670  0.08722500    -0.18900
F2632       F  0.11077393  0.02144877  0.05654649    -0.19000
F2633       F  0.08900304  0.02407254  0.02342760    -0.22900
F2634       F  0.07474878  0.00469676  0.05527818    -0.24500
loop_ 
_geom_bond_atom_site_label_1 
_geom_bond_atom_site_label_2 
_geom_bond_distance 
_geom_bond_site_symmetry_2 
_ccdc_geom_bond_type 
C1            C2   1.556       .  S
C1            C7   1.545       .  S
C1            C5   1.549       .  S
C1         C2616   1.565       .  S
C2            H9   1.085       .  S
C2            C3   1.368       .  D
C3            C4   1.530       .  S
C3          C766   1.473       .  S
C4            C8   1.534       .  S
C4            C6   1.536       .  S
C4           H10   1.112       .  S
C5           H11   1.081       .  S
C5            C6   1.368       .  D
C6          C742   1.481       .  S
C7           H12   1.086       .  S
C7            C8   1.368       .  D
C8          C790   1.480       .  S
C13          C14   1.551       .  S
C13          C19   1.558       .  S
C13          C17   1.541       .  S
C13        C2584   1.562       .  S
C14          H21   1.084       .  S
C14          C15   1.368       .  D
C15          C16   1.535       .  S
C15         C556   1.482       .  S
C16          C20   1.535       .  S
C16          C18   1.535       .  S
C16          H22   1.111       .  S
C17          H23   1.086       .  S
C17          C18   1.364       .  D
C18         C394   1.477       .  S
C19          H24   1.084       .  S
C19          C20   1.373       .  D
C20         C694   1.482       .  S
C25          C26   1.556       .  S
C25          C31   1.544       .  S
C25          C29   1.549       .  S
C25        C2552   1.562       .  S
C26          H33   1.083       .  S
C26          C27   1.364       .  D
C27          C28   1.532       .  S
C27         C494   1.471       .  S
C28          C32   1.533       .  S
C28          C30   1.540       .  S
C28          H34   1.111       .  S
C29          H35   1.085       .  S
C29          C30   1.370       .  D
C30         C194   1.482       .  S
C31          H36   1.086       .  S
C31          C32   1.367       .  D
C32         C594   1.480       .  S
C37          C38   1.560       .  S
C37          C43   1.547       .  S
C37          C41   1.551       .  S
C37        C2511   1.567       .  S
C38          H45   1.084       .  S
C38          C39   1.368       .  D
C39          C40   1.529       .  S
C39         C656   1.477       .  S
C40          C44   1.532       .  S
C40          C42   1.536       .  S
C40          H46   1.112       .  S
C41          H47   1.083       .  S
C41          C42   1.369       .  D
C42         C294   1.481       .  S
C43          H48   1.086       .  S
C43          C44   1.367       .  D
C44         C456   1.479       .  S
C49        C2520   1.609   1_655  S
C49        C2543   1.606   1_556  S
C49        C2575   1.606   1_565  S
C49        C2607   1.608   1_666  S
N50          N51   1.320       .  A
N50          C54   1.350       .  A
N50         Cu58   2.089       .  S
N51          C52   1.342       .  A
N51         Cu57   2.053       .  S
C52          C53   1.379       .  A
C52          H55   1.082       .  S
C53          C54   1.389       .  A
C53        C2479   1.480       .  S
C54          H56   1.082       .  S
Cu57         N60   2.051       .  S
Cu58         N68   2.091       .  S
Cu59         N61   2.106       .  S
Cu59         N67   2.108       .  S
N60          N61   1.322       .  A
N60          C64   1.339       .  A
N61          C62   1.354       .  A
C62          C63   1.392       .  A
C62          H65   1.082       .  S
C63          C64   1.376       .  A
C63        C2447   1.481       .  S
C64          H66   1.082       .  S
N67          N68   1.326       .  A
N67          C71   1.352       .  A
N68          C69   1.348       .  A
C69          C70   1.382       .  A
C69          H72   1.082       .  S
C70         C825   1.482       .  S
C70          C71   1.387       .  A
C71          H73   1.082       .  S
N74          N75   1.321       .  A
N74          C78   1.350       .  A
N74         Cu82   2.090       .  S
N75          C76   1.341       .  A
N75         Cu81   2.055       .  S
C76          C77   1.378       .  A
C76          H79   1.082       .  S
C77          C78   1.388       .  A
C77        C2392   1.478       .  S
C78          H80   1.082       .  S
Cu81         N84   2.055       .  S
Cu82         N92   2.092       .  S
Cu83         N85   2.112       .  S
Cu83         N91   2.115       .  S
N84          N85   1.322       .  A
N84          C88   1.341       .  A
N85          C86   1.354       .  A
C86          C87   1.395       .  A
C86          H89   1.081       .  S
C87          C88   1.378       .  A
C87        C2415   1.488       .  S
C88          H90   1.082       .  S
N91          N92   1.327       .  A
N91          C95   1.352       .  A
N92          C93   1.349       .  A
C93          C94   1.381       .  A
C93          H96   1.082       .  S
C94         C823   1.483       .  S
C94          C95   1.387       .  A
C95          H97   1.082       .  S
N98          N99   1.321       .  A
N98         C102   1.351       .  A
N98        Cu106   2.097       .  S
N99         C100   1.342       .  A
N99        Cu105   2.054       .  S
C100        C101   1.379       .  A
C100        H103   1.082       .  S
C101        C102   1.390       .  A
C101       C2360   1.483       .  S
C102        H104   1.081       .  S
Cu105       N108   2.050       .  S
Cu106       N116   2.099       .  S
Cu107       N109   2.096       .  S
Cu107       N115   2.097       .  S
N108        N109   1.321       .  A
N108        C112   1.341       .  A
N109        C110   1.350       .  A
C110        C111   1.391       .  A
C110        H113   1.082       .  S
C111        C112   1.379       .  A
C111       C2319   1.482       .  S
C112        H114   1.082       .  S
N115        N116   1.324       .  A
N115        C119   1.349       .  A
N116        C117   1.350       .  A
C117        C118   1.387       .  A
C117        H120   1.082       .  S
C118        C832   1.483       .  S
C118        C119   1.385       .  A
C119        H121   1.082       .  S
N122        N123   1.322       .  A
N122        C126   1.351       .  A
N122       Cu130   2.093       .  S
N123        C124   1.341       .  A
N123       Cu129   2.054       .  S
C124        C125   1.376       .  A
C124        H127   1.082       .  S
C125        C126   1.388       .  A
C125       C2255   1.476       .  S
C126        H128   1.082       .  S
Cu129       N132   2.051       .  S
Cu130       N140   2.094       .  S
Cu131       N133   2.103       .  S
Cu131       N139   2.105       .  S
N132        N133   1.321       .  A
N132        C136   1.341       .  A
N133        C134   1.352       .  A
C134        C135   1.393       .  A
C134        H137   1.082       .  S
C135        C136   1.379       .  A
C135       C2287   1.484       .  S
C136        H138   1.082       .  S
N139        N140   1.325       .  A
N139        C143   1.351       .  A
N140        C141   1.348       .  A
C141        C142   1.383       .  A
C141        H144   1.082       .  S
C142        C813   1.484       .  S
C142        C143   1.387       .  A
C143        H145   1.082       .  S
O146       Cu154   2.060   1_556  S
O146        C156   1.284       .  A
O147       Cu154   2.056       .  S
O147        C157   1.284       .  A
O148       Cu154   1.975       .  S
O148        C158   1.272       .  A
O149       Cu154   1.980   1_556  S
O149        C159   1.273       .  A
O150       Cu155   2.047       .  S
O150        C159   1.283       .  A
O151       Cu155   2.049   1_554  S
O151        C158   1.283       .  A
O152       Cu155   1.983   1_554  S
O152        C157   1.272       .  A
O153       Cu155   1.976       .  S
O153        C156   1.274       .  A
Cu154      Cu155   2.367   1_554  S
C156       C2232   1.501       .  S
C157       C2200   1.480       .  S
C158       C2328   1.480       .  S
C159       C2424   1.492       .  S
O160       Cu168   1.964       .  S
O160        C170   1.273       .  A
O161       Cu168   1.968   1_554  S
O161        C171   1.271       .  A
O162       Cu168   2.053       .  S
O162        C172   1.284   1_556  A
O163       Cu168   2.054       .  S
O163        C173   1.284       .  A
O164       Cu169   1.978       .  S
O164        C173   1.272       .  A
O165       Cu169   1.971       .  S
O165        C172   1.272   1_556  A
O166       Cu169   2.053   1_554  S
O166        C171   1.284       .  A
O167       Cu169   2.060       .  S
O167        C170   1.284       .  A
Cu168      Cu169   2.369       .  S
C170       C2095   1.503       .  S
C171       C2264   1.476       .  S
C172       C2127   1.481       .  S
C173       C2168   1.479       .  S
N174        N175   1.322       .  A
N174        C178   1.350       .  A
N174       Cu182   2.084       .  S
N175        C176   1.340       .  A
N175       Cu181   2.051       .  S
C176        C177   1.375       .  A
C176        H179   1.082       .  S
C177        C178   1.388       .  A
C177       C2136   1.474       .  S
C178        H180   1.082       .  S
Cu181       N184   2.050       .  S
Cu182       N192   2.086       .  S
Cu183       N185   2.109       .  S
Cu183       N191   2.111       .  S
N184        N185   1.321       .  A
N184        C188   1.342       .  A
N185        C186   1.353       .  A
C186        C187   1.393       .  A
C186        H189   1.082       .  S
C187        C188   1.379       .  A
C187       C2191   1.487       .  S
C188        H190   1.082       .  S
N191        N192   1.325       .  A
N191        C195   1.351       .  A
N192        C193   1.348       .  A
C193        C194   1.383       .  A
C193        H196   1.082       .  S
C194        C195   1.387       .  A
C195        H197   1.082       .  S
N198        N199   1.321       .  A
N198        C202   1.350       .  A
N198       Cu206   2.086       .  S
N199        C200   1.341       .  A
N199       Cu205   2.052       .  S
C200        C201   1.378       .  A
C200        H203   1.082       .  S
C201        C202   1.389       .  A
C201       C2104   1.480       .  S
C202        H204   1.082       .  S
Cu205       N208   2.050       .  S
Cu206       N216   2.088       .  S
Cu207       N209   2.090       .  S
Cu207       N215   2.091       .  S
N208        N209   1.321       .  A
N208        C212   1.341       .  A
N209        C210   1.349       .  A
C210        C211   1.388       .  A
C210        H213   1.082       .  S
C211        C212   1.377       .  A
C211       C2063   1.477       .  S
C212        H214   1.082       .  S
N215        N216   1.325       .  A
N215        C219   1.347       .  A
N216        C217   1.349       .  A
C217        C218   1.384       .  A
C217        H220   1.082       .  S
C218        C820   1.476       .  S
C218        C219   1.382       .  A
C219        H221   1.082       .  S
N222        N223   1.321       .  A
N222        C226   1.350       .  A
N222       Cu230   2.090       .  S
N223        C224   1.340       .  A
N223       Cu229   2.054       .  S
C224        C225   1.379       .  A
C224        H227   1.082       .  S
C225        C226   1.390       .  A
C225       C2031   1.481       .  S
C226        H228   1.081       .  S
Cu229       N232   2.052       .  S
Cu230       N240   2.092       .  S
Cu231       N233   2.104       .  S
Cu231       N239   2.107       .  S
N232        N233   1.320       .  A
N232        C236   1.341       .  A
N233        C234   1.353       .  A
C234        C235   1.394       .  A
C234        H237   1.082       .  S
C235        C236   1.379       .  A
C235       C1999   1.485       .  S
C236        H238   1.082       .  S
N239        N240   1.325       .  A
N239        C243   1.350       .  A
N240        C241   1.350       .  A
C241        C242   1.384       .  A
C241        H244   1.082       .  S
C242        C835   1.484       .  S
C242        C243   1.386       .  A
C243        H245   1.082       .  S
O246       Cu254   2.058       .  S
O246        C256   1.285       .  A
O247       Cu254   2.062       .  S
O247        C257   1.286       .  A
O248       Cu254   1.980       .  S
O248        C258   1.271       .  A
O249       Cu254   1.971   1_455  S
O249        C259   1.271       .  A
O250       Cu255   2.057   1_455  S
O250        C259   1.284       .  A
O251       Cu255   2.060       .  S
O251        C258   1.285       .  A
O252       Cu255   1.956       .  S
O252        C257   1.269       .  A
O253       Cu255   1.960       .  S
O253        C256   1.268       .  A
Cu254      Cu255   2.368       .  S
C256       C1935   1.489       .  S
C257       C1976   1.484   1_655  S
C258       C2456   1.482       .  S
C259       C2008   1.480       .  S
O260       Cu268   2.056   1_455  S
O260        C270   1.284       .  A
O261       Cu268   2.052       .  S
O261        C271   1.284       .  A
O262       Cu268   1.984       .  S
O262        C272   1.273       .  A
O263       Cu268   1.982   1_455  S
O263        C273   1.272       .  A
O264       Cu269   2.053   1_455  S
O264        C273   1.284       .  A
O265       Cu269   2.045       .  S
O265        C272   1.283       .  A
O266       Cu269   1.978       .  S
O266        C271   1.273       .  A
O267       Cu269   1.987       .  S
O267        C270   1.274   1_655  A
Cu268      Cu269   2.371       .  S
C270       C1912   1.485       .  S
C271       C1880   1.488       .  S
C272       C2072   1.477       .  S
C273       C1848   1.480       .  S
N274        N275   1.321       .  A
N274        C278   1.352       .  A
N274       Cu282   2.099       .  S
N275        C276   1.342       .  A
N275       Cu281   2.056       .  S
C276        C277   1.379       .  A
C276        H279   1.082       .  S
C277        C278   1.391       .  A
C277       C1903   1.483       .  S
C278        H280   1.082       .  S
Cu281       N284   2.053       .  S
Cu282       N292   2.101       .  S
Cu283       N285   2.091       .  S
Cu283       N291   2.092       .  S
N284        N285   1.322       .  A
N284        C288   1.342       .  A
N285        C286   1.350       .  A
C286        C287   1.388       .  A
C286        H289   1.082       .  S
C287        C288   1.377       .  A
C287       C1967   1.477       .  S
C288        H290   1.082       .  S
N291        N292   1.324       .  A
N291        C295   1.349       .  A
N292        C293   1.350       .  A
C293        C294   1.386       .  A
C293        H296   1.082       .  S
C294        C295   1.384       .  A
C295        H297   1.082       .  S
N298        N299   1.320       .  A
N298        C302   1.356       .  A
N298       Cu306   2.123       .  S
N299        C300   1.341       .  A
N299       Cu305   2.048       .  S
C300        C301   1.381       .  A
C300        H303   1.082       .  S
C301        C302   1.399       .  A
C301       C1807   1.497       .  S
C302        H304   1.081       .  S
Cu305       N308   2.054       .  S
Cu306       N316   2.125       .  S
Cu307       N309   2.096       .  S
Cu307       N315   2.098       .  S
N308        N309   1.322       .  A
N308        C312   1.341       .  A
N309        C310   1.352       .  A
C310        C311   1.389       .  A
C310        H313   1.082       .  S
C311        C312   1.377       .  A
C311       C1839   1.478       .  S
C312        H314   1.082       .  S
N315        N316   1.325       .  A
N315        C319   1.350       .  A
N316        C317   1.355       .  A
C317        C318   1.392       .  A
C317        H320   1.082       .  S
C318        C799   1.493       .  S
C318        C319   1.385       .  A
C319        H321   1.082       .  S
N322        N323   1.322       .  A
N322        C326   1.352       .  A
N322       Cu330   2.102       .  S
N323        C324   1.340       .  A
N323       Cu329   2.049       .  S
C324        C325   1.375       .  A
C324        H327   1.082       .  S
C325        C326   1.390       .  A
C325       C1743   1.478       .  S
C326        H328   1.082       .  S
Cu329       N332   2.050       .  S
Cu330       N340   2.103       .  S
Cu331       N333   2.101       .  S
Cu331       N339   2.103       .  S
N332        N333   1.321       .  A
N332        C336   1.343       .  A
N333        C334   1.351       .  A
C334        C335   1.390       .  A
C334        H337   1.082       .  S
C335        C336   1.378       .  A
C335       C1775   1.480       .  S
C336        H338   1.082       .  S
N339        N340   1.325       .  A
N339        C343   1.349       .  A
N340        C341   1.352       .  A
C341        C342   1.387       .  A
C341        H344   1.082       .  S
C342        C811   1.486       .  S
C342        C343   1.386       .  A
C343        H345   1.082       .  S
O346       Cu354   2.044       .  S
O346        C356   1.282       .  A
O347       Cu354   2.042   1_545  S
O347        C357   1.282       .  A
O348       Cu354   1.997       .  S
O348        C358   1.275       .  A
O349       Cu354   1.996       .  S
O349        C359   1.274       .  A
O350       Cu355   2.049       .  S
O350        C359   1.282       .  A
O351       Cu355   2.047       .  S
O351        C358   1.282       .  A
O352       Cu355   1.992   1_545  S
O352        C357   1.275       .  A
O353       Cu355   1.989       .  S
O353        C356   1.276       .  A
Cu354      Cu355   2.367       .  S
C356       C2488   1.496       .  S
C357       C1752   1.490       .  S
C358       C1711   1.485   1_565  S
C359       C1688   1.483       .  S
O360       Cu368   1.974       .  S
O360        C370   1.272       .  A
O361       Cu368   1.967       .  S
O361        C371   1.273       .  A
O362       Cu368   2.045       .  S
O362        C372   1.283       .  A
O363       Cu368   2.054   1_545  S
O363        C373   1.284       .  A
O364       Cu369   1.993   1_545  S
O364        C373   1.274       .  A
O365       Cu369   1.989       .  S
O365        C372   1.273       .  A
O366       Cu369   2.049       .  S
O366        C371   1.283       .  A
O367       Cu369   2.048       .  S
O367        C370   1.283       .  A
Cu368      Cu369   2.370       .  S
C370       C1615   1.478   1_565  S
C371       C1647   1.486       .  S
C372       C2383   1.487       .  S
C373       C1583   1.484       .  S
N374        N375   1.321       .  A
N374        C378   1.350       .  A
N374       Cu382   2.085       .  S
N375        C376   1.340       .  A
N375       Cu381   2.054       .  S
C376        C377   1.381       .  A
C376        H379   1.082   1_545  S
C377        C378   1.390       .  A
C377       C1624   1.483       .  S
C378        H380   1.081       .  S
Cu381       N384   2.054       .  S
Cu382       N392   2.086       .  S
Cu383       N385   2.099       .  S
Cu383       N391   2.101       .  S
N384        N385   1.321       .  A
N384        C388   1.342       .  A
N385        C386   1.352       .  A
C386        C387   1.392       .  A
C386        H389   1.082       .  S
C387        C388   1.379       .  A
C387       C1720   1.484       .  S
C388        H390   1.082   1_545  S
N391        N392   1.325       .  A
N391        C395   1.350       .  A
N392        C393   1.347       .  A
C393        C394   1.381       .  A
C393        H396   1.082       .  S
C394        C395   1.386       .  A
C395        H397   1.082       .  S
N398        N399   1.319       .  A
N398        C402   1.347       .  A
N398       Cu406   2.077       .  S
N399        C400   1.343       .  A
N399       Cu405   2.054       .  S
C400        C401   1.381       .  A
C400        H403   1.082       .  S
C401        C402   1.387       .  A
C401       C1551   1.478       .  S
C402        H404   1.082       .  S
Cu405       N408   2.052       .  S
Cu406       N416   2.079       .  S
Cu407       N409   2.119       .  S
Cu407       N415   2.120       .  S
N408        N409   1.324       .  A
N408        C412   1.340       .  A
N409        C410   1.356       .  A
C410        C411   1.394       .  A
C410        H413   1.082       .  S
C411        C412   1.376       .  A
C411       C1592   1.485       .  S
C412        H414   1.082       .  S
N415        N416   1.324       .  A
N415        C419   1.354       .  A
N416        C417   1.346       .  A
C417        C418   1.380       .  A
C417        H420   1.082       .  S
C418        C801   1.485       .  S
C418        C419   1.392       .  A
C419        H421   1.082       .  S
O422       Cu430   1.982   1_554  S
O422        C432   1.275       .  A
O423       Cu430   1.992       .  S
O423        C433   1.273       .  A
O424       Cu430   2.057       .  S
O424        C434   1.284       .  A
O425       Cu430   2.053   1_554  S
O425        C435   1.282       .  A
O426       Cu431   1.995   1_554  S
O426        C435   1.277       .  A
O427       Cu431   1.988       .  S
O427        C434   1.273       .  A
O428       Cu431   2.043       .  S
O428        C433   1.282       .  A
O429       Cu431   2.044       .  S
O429        C432   1.282   1_556  A
Cu430      Cu431   2.366       .  S
C432       C1496   1.489       .  S
C433       C1519   1.479       .  S
C434       C1816   1.482       .  S
C435       C1464   1.510       .  S
N436        N437   1.320       .  A
N436        C440   1.350       .  A
N436       Cu444   2.093       .  S
N437        C438   1.343       .  A
N437       Cu443   2.051       .  S
C438        C439   1.379       .  A
C438        H441   1.082       .  S
C439        C440   1.391       .  A
C439       C2223   1.484       .  S
C440        H442   1.081       .  S
Cu443       N446   2.050       .  S
Cu444       N454   2.095       .  S
Cu445       N447   2.091       .  S
Cu445       N453   2.092       .  S
N446        N447   1.323       .  A
N446        C450   1.339       .  A
N447        C448   1.351       .  A
C448        C449   1.388       .  A
C448        H451   1.082       .  S
C449        C450   1.375       .  A
C449       C1528   1.475       .  S
C450        H452   1.082       .  S
N453        N454   1.324       .  A
N453        C457   1.349       .  A
N454        C455   1.348       .  A
C455        C456   1.385       .  A
C455        H458   1.082       .  S
C456        C457   1.384       .  A
C457        H459   1.082       .  S
O460       Cu468   1.978       .  S
O460        C470   1.273       .  A
O461       Cu468   1.982   1_455  S
O461        C471   1.272       .  A
O462       Cu468   2.049       .  S
O462        C472   1.283       .  A
O463       Cu468   2.045   1_455  S
O463        C473   1.282       .  A
O464       Cu469   1.989   1_455  S
O464        C473   1.274       .  A
O465       Cu469   1.982       .  S
O465        C472   1.272       .  A
O466       Cu469   2.051   1_455  S
O466        C471   1.284       .  A
O467       Cu469   2.059       .  S
O467        C470   1.284       .  A
Cu468      Cu469   2.371       .  S
C470       C1423   1.488       .  S
C471       C1391   1.486       .  S
C472       C2296   1.478       .  S
C473       C1359   1.482       .  S
N474        N475   1.322       .  A
N474        C478   1.349       .  A
N474       Cu482   2.083       .  S
N475        C476   1.341       .  A
N475       Cu481   2.057       .  S
C476        C477   1.377       .  A
C476        H479   1.082       .  S
C477        C478   1.386       .  A
C477       C1432   1.475       .  S
C478        H480   1.082       .  S
Cu481       N484   2.055       .  S
Cu482       N492   2.084       .  S
Cu483       N485   2.080       .  S
Cu483       N491   2.082       .  S
N484        N485   1.321       .  A
N484        C488   1.340       .  A
N485        C486   1.349       .  A
C486        C487   1.388       .  A
C486        H489   1.082       .  S
C487        C488   1.377       .  A
C487       C1944   1.476       .  S
C488        H490   1.082       .  S
N491        N492   1.324       .  A
N491        C495   1.346       .  A
N492        C493   1.347       .  A
C493        C494   1.382       .  A
C493        H496   1.082       .  S
C494        C495   1.380       .  A
C495        H497   1.082       .  S
N498        N499   1.321       .  A
N498        C502   1.352       .  A
N498       Cu506   2.094       .  S
N499        C500   1.341       .  A
N499       Cu505   2.051       .  S
C500        C501   1.377       .  A
C500        H503   1.082       .  S
C501        C502   1.392       .  A
C501       C1455   1.483       .  S
C502        H504   1.081       .  S
Cu505       N508   2.051       .  S
Cu506       N516   2.096       .  S
Cu507       N509   2.094       .  S
Cu507       N515   2.095       .  S
N508        N509   1.321       .  A
N508        C512   1.340       .  A
N509        C510   1.352       .  A
C510        C511   1.392       .  A
C510        H513   1.081       .  S
C511        C512   1.379       .  A
C511       C1368   1.484       .  S
C512        H514   1.082       .  S
N515        N516   1.325       .  A
N515        C519   1.349       .  A
N516        C517   1.349       .  A
C517        C518   1.384       .  A
C517        H520   1.082       .  S
C518        C837   1.478       .  S
C518        C519   1.383       .  A
C519        H521   1.082       .  S
O522       Cu530   2.061   1_554  S
O522        C532   1.284       .  A
O523       Cu530   2.060       .  S
O523        C533   1.286       .  A
O524       Cu530   1.971       .  S
O524        C534   1.272       .  A
O525       Cu530   1.979       .  S
O525        C535   1.272       .  A
O526       Cu531   2.052       .  S
O526        C535   1.283       .  A
O527       Cu531   2.049       .  S
O527        C534   1.283       .  A
O528       Cu531   1.976       .  S
O528        C533   1.269       .  A
O529       Cu531   1.977   1_554  S
O529        C532   1.274       .  A
Cu530      Cu531   2.366       .  S
C532       C1272   1.493       .  S
C533       C1560   1.499       .  S
C534       C1327   1.485       .  S
C535       C1295   1.479   1_556  S
N536        N537   1.320       .  A
N536        C540   1.353       .  A
N536       Cu544   2.103       .  S
N537        C538   1.341       .  A
N537       Cu543   2.059       .  S
C538        C539   1.384       .  A
C538        H541   1.082       .  S
C539        C540   1.396       .  A
C539       C2159   1.495       .  S
C540        H542   1.080       .  S
Cu543       N546   2.059       .  S
Cu544       N554   2.105       .  S
Cu545       N547   2.090       .  S
Cu545       N553   2.092       .  S
N546        N547   1.322       .  A
N546        C550   1.341       .  A
N547        C548   1.350       .  A
C548        C549   1.388       .  A
C548        H551   1.082       .  S
C549        C550   1.378       .  A
C549       C1336   1.476       .  S
C550        H552   1.082       .  S
N553        N554   1.325       .  A
N553        C557   1.349       .  A
N554        C555   1.351       .  A
C555        C556   1.386       .  A
C555        H558   1.082       .  S
C556        C557   1.383       .  A
C557        H559   1.082       .  S
O560       Cu568   2.033   1_545  S
O560        C570   1.281       .  A
O561       Cu568   2.033       .  S
O561        C571   1.281       .  A
O562       Cu568   1.976   1_545  S
O562        C572   1.274       .  A
O563       Cu568   1.980       .  S
O563        C573   1.272       .  A
O564       Cu569   2.049       .  S
O564        C573   1.283       .  A
O565       Cu569   2.052   1_545  S
O565        C572   1.283       .  A
O566       Cu569   1.972       .  S
O566        C571   1.272       .  A
O567       Cu569   1.973   1_545  S
O567        C570   1.273       .  A
Cu568      Cu569   2.368       .  S
C570       C1208   1.479       .  S
C571       C1231   1.472       .  S
C572       C1176   1.505       .  S
C573       C2351   1.478       .  S
N574        N575   1.323       .  A
N574        C578   1.355       .  A
N574       Cu582   2.122       .  S
N575        C576   1.342       .  A
N575       Cu581   2.056       .  S
C576        C577   1.377       .  A
C576        H579   1.082       .  S
C577        C578   1.394       .  A
C577       C1679   1.487       .  S
C578        H580   1.082       .  S
Cu581       N584   2.052       .  S
Cu582       N592   2.122       .  S
Cu583       N585   2.066       .  S
Cu583       N591   2.068       .  S
N584        N585   1.320       .  A
N584        C588   1.340       .  A
N585        C586   1.347       .  A
C586        C587   1.384       .  A
C586        H589   1.082       .  S
C587        C588   1.378       .  A
C587       C1240   1.471       .  S
C588        H590   1.082       .  S
N591        N592   1.325       .  A
N591        C595   1.344       .  A
N592        C593   1.354       .  A
C593        C594   1.391       .  A
C593        H596   1.082       .  S
C594        C595   1.377       .  A
C595        H597   1.082       .  S
N598        N599   1.323       .  A
N598        C602   1.354       .  A
N598       Cu606   2.114       .  S
N599        C600   1.340       .  A
N599       Cu605   2.048       .  S
C600        C601   1.374       .  A
C600        H603   1.082       .  S
C601        C602   1.393       .  A
C601       C1263   1.481       .  S
C602        H604   1.082       .  S
Cu605       N608   2.052       .  S
Cu606       N616   2.115       .  S
Cu607       N609   2.091       .  S
Cu607       N615   2.094       .  S
N608        N609   1.320       .  A
N608        C612   1.343       .  A
N609        C610   1.349       .  A
C610        C611   1.392       .  A
C610        H613   1.080       .  S
C611        C612   1.380       .  A
C611       C1167   1.486       .  S
C612        H614   1.082       .  S
N615        N616   1.325       .  A
N615        C619   1.348       .  A
N616        C617   1.354       .  A
C617        C618   1.389       .  A
C617        H620   1.082       .  S
C618        C808   1.487       .  S
C618        C619   1.384       .  A
C619        H621   1.082       .  S
O622       Cu630   2.027   1_545  S
O622        C632   1.279       .  A
O623       Cu630   2.029       .  S
O623        C633   1.280       .  A
O624       Cu630   1.992       .  S
O624        C634   1.275       .  A
O625       Cu630   1.992   1_545  S
O625        C635   1.276       .  A
O626       Cu631   2.033   1_545  S
O626        C635   1.280       .  A
O627       Cu631   2.028       .  S
O627        C634   1.279       .  A
O628       Cu631   1.985       .  S
O628        C633   1.275       .  A
O629       Cu631   1.991   1_545  S
O629        C632   1.276       .  A
Cu630      Cu631   2.371       .  S
C632       C1103   1.489       .  S
C633       C1135   1.480       .  S
C634       C2040   1.471       .  S
C635       C1080   1.484       .  S
N636        N637   1.321       .  A
N636        C640   1.350       .  A
N636       Cu644   2.092       .  S
N637        C638   1.341       .  A
N637       Cu643   2.051       .  S
C638        C639   1.376       .  A
C638        H641   1.082       .  S
C639        C640   1.390       .  A
C639       C1656   1.479       .  S
C640        H642   1.082       .  S
Cu643       N646   2.054       .  S
Cu644       N654   2.094       .  S
Cu645       N647   2.087       .  S
Cu645       N653   2.089       .  S
N646        N647   1.321       .  A
N646        C650   1.341       .  A
N647        C648   1.350       .  A
C648        C649   1.387       .  A
C648        H651   1.082       .  S
C649        C650   1.377       .  A
C649       C1144   1.474       .  S
C650        H652   1.082       .  S
N653        N654   1.325       .  A
N653        C657   1.348       .  A
N654        C655   1.349       .  A
C655        C656   1.384       .  A
C655        H658   1.082       .  S
C656        C657   1.382       .  A
C657        H659   1.082       .  S
O660       Cu668   1.978       .  S
O660        C670   1.271       .  A
O661       Cu668   1.981   1_455  S
O661        C671   1.275       .  A
O662       Cu668   2.048       .  S
O662        C672   1.283   1_655  A
O663       Cu668   2.051       .  S
O663        C673   1.283       .  A
O664       Cu669   1.977       .  S
O664        C673   1.271       .  A
O665       Cu669   1.968       .  S
O665        C672   1.271   1_655  A
O666       Cu669   2.048   1_455  S
O666        C671   1.283       .  A
O667       Cu669   2.051       .  S
O667        C670   1.284       .  A
Cu668      Cu669   2.366       .  S
C670       C1784   1.488       .  S
C671        C975   1.497       .  S
C672       C1007   1.474       .  S
C673       C1039   1.489       .  S
N674        N675   1.321       .  A
N674        C678   1.353       .  A
N674       Cu682   2.098       .  S
N675        C676   1.339       .  A
N675       Cu681   2.050       .  S
C676        C677   1.376       .  A
C676        H679   1.082       .  S
C677        C678   1.390       .  A
C677       C1871   1.477       .  S
C678        H680   1.082       .  S
Cu681       N684   2.048       .  S
Cu682       N692   2.101       .  S
Cu683       N685   2.100       .  S
Cu683       N691   2.103       .  S
N684        N685   1.320       .  A
N684        C688   1.340       .  A
N685        C686   1.352       .  A
C686        C687   1.393       .  A
C686        H689   1.082       .  S
C687        C688   1.378       .  A
C687       C1048   1.482       .  S
C688        H690   1.082       .  S
N691        N692   1.326       .  A
N691        C695   1.350       .  A
N692        C693   1.350       .  A
C693        C694   1.384       .  A
C693        H696   1.082       .  S
C694        C695   1.384       .  A
C695        H697   1.082       .  S
N698        N699   1.320       .  A
N698        C702   1.350       .  A
N698       Cu706   2.096       .  S
N699        C700   1.342       .  A
N699       Cu705   2.049       .  S
C700        C701   1.379       .  A
C700        H703   1.082       .  S
C701        C702   1.390       .  A
C701        C984   1.480       .  S
C702        H704   1.082       .  S
Cu705       N708   2.051       .  S
Cu706       N716   2.098       .  S
Cu707       N709   2.098       .  S
Cu707       N715   2.099       .  S
N708        N709   1.322       .  A
N708        C712   1.339       .  A
N709        C710   1.352       .  A
C710        C711   1.391       .  A
C710        H713   1.081       .  S
C711        C712   1.377       .  A
C711       C1071   1.481       .  S
C712        H714   1.082       .  S
N715        N716   1.325       .  A
N715        C719   1.350       .  A
N716        C717   1.350       .  A
C717        C718   1.387       .  A
C717        H720   1.082       .  S
C718        C796   1.487       .  S
C718        C719   1.386       .  A
C719        H721   1.081       .  S
N722        N723   1.321       .  A
N722        C726   1.349       .  A
N722       Cu730   2.090       .  S
N723        C724   1.343       .  A
N723       Cu729   2.057       .  S
C724        C725   1.379       .  A
C724        H727   1.082   1_455  S
C725        C726   1.388       .  A
C725       C1400   1.480       .  S
C726        H728   1.082       .  S
Cu729       N732   2.054       .  S
Cu730       N740   2.091       .  S
Cu731       N733   2.099       .  S
Cu731       N739   2.100       .  S
N732        N733   1.321       .  A
N732        C736   1.339       .  A
N733        C734   1.351       .  A
C734        C735   1.394       .  A
C734        H737   1.079       .  S
C735        C736   1.381       .  A
C735       C1016   1.490       .  S
C736        H738   1.082       .  S
N739        N740   1.324       .  A
N739        C743   1.351       .  A
N740        C741   1.348       .  A
C741        C742   1.383       .  A
C741        H744   1.082       .  S
C742        C743   1.386       .  A
C743        H745   1.082       .  S
N746        N747   1.322       .  A
N746        C750   1.351       .  A
N746       Cu754   2.093       .  S
N747        C748   1.340       .  A
N747       Cu753   2.054       .  S
C748        C749   1.376       .  A
C748        H751   1.082       .  S
C749        C750   1.389       .  A
C749       C1199   1.475       .  S
C750        H752   1.082       .  S
Cu753       N756   2.055       .  S
Cu754       N764   2.095       .  S
Cu755       N757   2.079       .  S
Cu755       N763   2.082       .  S
N756        N757   1.320       .  A
N756        C760   1.340       .  A
N757        C758   1.349       .  A
C758        C759   1.386       .  A
C758        H761   1.082       .  S
C759        C760   1.378       .  A
C759       C1112   1.473       .  S
C760        H762   1.082       .  S
N763        N764   1.326       .  A
N763        C767   1.346       .  A
N764        C765   1.349       .  A
C765        C766   1.383       .  A
C765        H768   1.082       .  S
C766        C767   1.379       .  A
C767        H769   1.082       .  S
N770        N771   1.322       .  A
N770        C774   1.354       .  A
N770       Cu778   2.105       .  S
N771        C772   1.340       .  A
N771       Cu777   2.052       .  S
C772        C773   1.375       .  A
C772        H775   1.082       .  S
C773        C774   1.392       .  A
C773       C1304   1.481       .  S
C774        H776   1.082       .  S
Cu777       N780   2.050       .  S
Cu778       N788   2.107       .  S
Cu779       N781   2.086       .  S
Cu779       N787   2.087       .  S
N780        N781   1.320       .  A
N780        C784   1.341       .  A
N781        C782   1.349       .  A
C782        C783   1.389       .  A
C782        H785   1.082       .  S
C783        C784   1.378       .  A
C783       C1487   1.478       .  S
C784        H786   1.082   1_554  S
N787        N788   1.326       .  A
N787        C791   1.348       .  A
N788        C789   1.351       .  A
C789        C790   1.387       .  A
C789        H792   1.082       .  S
C790        C791   1.381       .  A
C791        H793   1.082       .  S
C794        C795   1.566       .  S
C794        C800   1.553       .  S
C794        C798   1.552       .  S
C794        C943   1.588       .  S
C795        H802   1.066       .  S
C795        C796   1.370       .  D
C796        C797   1.533       .  S
C797        C801   1.531       .  S
C797        C799   1.541       .  S
C797        H803   1.112       .  S
C798        H804   1.085       .  S
C798        C799   1.374       .  D
C800        H805   1.086       .  S
C800        C801   1.371       .  D
C806        C807   1.554       .  S
C806        C812   1.559       .  S
C806        C810   1.550       .  S
C806        C911   1.574       .  S
C807        H814   1.085       .  S
C807        C808   1.371       .  D
C808        C809   1.537       .  S
C809        C813   1.535       .  S
C809        C811   1.535       .  S
C809        H815   1.112       .  S
C810        H816   1.086       .  S
C810        C811   1.370       .  D
C812        H817   1.083       .  S
C812        C813   1.368       .  D
C818        C819   1.557       .  S
C818        C824   1.546       .  S
C818        C822   1.551       .  S
C818        C879   1.566       .  S
C819        H826   1.084       .  S
C819        C820   1.367       .  D
C820        C821   1.532       .  S
C821        C825   1.535       .  S
C821        C823   1.537       .  S
C821        H827   1.111       .  S
C822        H828   1.084       .  S
C822        C823   1.371       .  D
C824        H829   1.086       .  S
C824        C825   1.366       .  D
C830        C831   1.562       .  S
C830        C836   1.545       .  S
C830        C834   1.553       .  S
C830        C856   1.574       .  S
C831        H838   1.084       .  S
C831        C832   1.371       .  D
C832        C833   1.531       .  S
C833        C837   1.532       .  S
C833        C835   1.534       .  S
C833        H839   1.112       .  S
C834        H840   1.078       .  S
C834        C835   1.370       .  D
C836        H841   1.086       .  S
C836        C837   1.366       .  D
C842        C847   1.633       .  S
C842        C888   1.616       .  S
C842        C920   1.596       .  S
C842        C952   1.623       .  S
C843        C844   1.399       .  A
C843        C848   1.429       .  A
C843        H853   1.082       .  S
C844        C845   1.407       .  A
C844        C849   1.515       .  S
C845        C850   1.523       .  S
C845        C846   1.415       .  A
C846        C847   1.436       .  A
C846        H851   1.073       .  S
C847        C848   1.459       .  A
C848        C852   1.532       .  S
C849        C854   1.415       .  A
C849        C858   1.401       .  A
C850        F866   1.382       .  S
C850        F867   1.382       .  S
C850        F868   1.385       .  S
C852        F863   1.369       .  S
C852        F864   1.385       .  S
C852        F865   1.377       .  S
C854        C859   1.520       .  S
C854        C855   1.420       .  A
C855        C856   1.421       .  A
C855        H860   1.078       .  S
C856        C857   1.441       .  A
C857        C861   1.524       .  S
C857        C858   1.420       .  A
C858        H862   1.084       .  S
C859        F872   1.385       .  S
C859        F873   1.382       .  S
C859        F874   1.381       .  S
C861        F869   1.386       .  S
C861        F870   1.380       .  S
C861        F871   1.381       .  S
C875        C876   1.403       .  A
C875        C880   1.420       .  A
C875        H885   1.084       .  S
C876        C877   1.414       .  A
C876        C881   1.509       .  S
C877        C882   1.521       .  S
C877        C878   1.414       .  A
C878        C879   1.418       .  A
C878        H883   1.077       .  S
C879        C880   1.438       .  A
C880        C884   1.524       .  S
C881        C886   1.407       .  A
C881        C890   1.395       .  A
C882        F898   1.382       .  S
C882        F899   1.382       .  S
C882        F900   1.384       .  S
C884        F895   1.385       .  S
C884        F896   1.378       .  S
C884        F897   1.382       .  S
C886        C891   1.521       .  S
C886        C887   1.415       .  A
C887        C888   1.429       .  A
C887        H892   1.070       .  S
C888        C889   1.461       .  A
C889        C893   1.534       .  S
C889        C890   1.422       .  A
C890        H894   1.083       .  S
C891        F904   1.385       .  S
C891        F905   1.383       .  S
C891        F906   1.381       .  S
C893        F901   1.385       .  S
C893        F902   1.375       .  S
C893        F903   1.380       .  S
C907        C908   1.403       .  A
C907        C912   1.421       .  A
C907        H917   1.085       .  S
C908        C909   1.416       .  A
C908        C913   1.516       .  S
C909        C914   1.521       .  S
C909        C910   1.419       .  A
C910        C911   1.420       .  A
C910        H915   1.076       .  S
C911        C912   1.439       .  A
C912        C916   1.523       .  S
C913        C918   1.412       .  A
C913        C922   1.399       .  A
C914        F930   1.382       .  S
C914        F931   1.382       .  S
C914        F932   1.385       .  S
C916        F927   1.383       .  S
C916        F928   1.385       .  S
C916        F929   1.377       .  S
C918        C923   1.520       .  S
C918        C919   1.419       .  A
C919        C920   1.426       .  A
C919        H924   1.074       .  S
C920        C921   1.456       .  A
C921        C925   1.532       .  S
C921        C922   1.425       .  A
C922        H926   1.083       .  S
C923        F936   1.384       .  S
C923        F937   1.383       .  S
C923        F938   1.382       .  S
C925        F933   1.385       .  S
C925        F934   1.375       .  S
C925        F935   1.380       .  S
C939        C940   1.404       .  A
C939        C944   1.427       .  A
C939        H949   1.082       .  S
C940        C941   1.417       .  A
C940        C945   1.526       .  S
C941        C946   1.523       .  S
C941        C942   1.423       .  A
C942        C943   1.425       .  A
C942        H947   1.045       .  S
C943        C944   1.445       .  A
C944        C948   1.525       .  S
C945        C950   1.414       .  A
C945        C954   1.395       .  A
C946        F962   1.381       .  S
C946        F963   1.382       .  S
C946        F964   1.384       .  S
C948        F959   1.383       .  S
C948        F960   1.384       .  S
C948        F961   1.374       .  S
C950        C955   1.517       .  S
C950        C951   1.424       .  A
C951        C952   1.432       .  A
C951        H956   1.081       .  S
C952        C953   1.466       .  A
C953        C957   1.535       .  S
C953        C954   1.424       .  A
C954        H958   1.085       .  S
C955        F968   1.385       .  S
C955        F969   1.382       .  S
C955        F970   1.382       .  S
C957        F965   1.387       .  S
C957        F966   1.381       .  S
C957        F967   1.364       .  S
C971        C972   1.404       .  A
C971        C976   1.413       .  A
C971        H981   1.083       .  S
C972        C973   1.414       .  A
C972        C977   1.492       .  S
C973        C978   1.521       .  S
C973        C974   1.405       .  A
C974        C975   1.409       .  A
C974        H979   1.083       .  S
C975        C976   1.422       .  A
C976        C980   1.518       .  S
C977        C982   1.417       .  A
C977        C986   1.407       .  A
C978        F994   1.382       .  S
C978        F995   1.383       .  S
C978        F996   1.385       .  S
C980        F991   1.385       .  S
C980        F992   1.383       .  S
C980        F993   1.383       .  S
C982        C987   1.520       .  S
C982        C983   1.408       .  A
C983        C984   1.403       .  A
C983        H988   1.083       .  S
C984        C985   1.412       .  A
C985        C989   1.516       .  S
C985        C986   1.411       .  A
C986        H990   1.083       .  S
C987       F1000   1.384       .  S
C987       F1001   1.382       .  S
C987       F1002   1.383       .  S
C989        F997   1.383       .  S
C989        F998   1.383       .  S
C989        F999   1.384       .  S
C1003      C1004   1.402       .  A
C1003      C1008   1.408       .  A
C1003      H1013   1.085       .  S
C1004      C1005   1.415   1_455  A
C1004      C1009   1.485       .  S
C1005      C1010   1.522       .  S
C1005      C1006   1.404       .  A
C1006      C1007   1.405   1_655  A
C1006      H1011   1.084       .  S
C1007      C1008   1.421       .  A
C1008      C1012   1.519       .  S
C1009      C1014   1.411       .  A
C1009      C1018   1.403       .  A
C1010      F1026   1.382       .  S
C1010      F1027   1.382       .  S
C1010      F1028   1.385       .  S
C1012      F1023   1.379       .  S
C1012      F1024   1.383       .  S
C1012      F1025   1.384       .  S
C1014      C1019   1.520       .  S
C1014      C1015   1.406       .  A
C1015      C1016   1.409       .  A
C1015      H1020   1.083       .  S
C1016      C1017   1.419       .  A
C1017      C1021   1.517       .  S
C1017      C1018   1.411       .  A
C1018      H1022   1.083       .  S
C1019      F1032   1.384       .  S
C1019      F1033   1.382       .  S
C1019      F1034   1.382   1_455  S
C1021      F1029   1.385       .  S
C1021      F1030   1.381       .  S
C1021      F1031   1.383       .  S
C1035      C1036   1.397       .  A
C1035      C1040   1.403       .  A
C1035      H1045   1.083       .  S
C1036      C1037   1.419       .  A
C1036      C1041   1.489       .  S
C1037      C1042   1.518       .  S
C1037      C1038   1.414       .  A
C1038      C1039   1.406       .  A
C1038      H1043   1.083       .  S
C1039      C1040   1.425       .  A
C1040      C1044   1.521       .  S
C1041      C1046   1.418       .  A
C1041      C1050   1.402       .  A
C1042      F1058   1.382       .  S
C1042      F1059   1.382       .  S
C1042      F1060   1.385       .  S
C1044      F1055   1.385       .  S
C1044      F1056   1.383       .  S
C1044      F1057   1.383       .  S
C1046      C1051   1.519       .  S
C1046      C1047   1.411       .  A
C1047      C1048   1.404       .  A
C1047      H1052   1.083       .  S
C1048      C1049   1.417       .  A
C1049      C1053   1.519   1_655  S
C1049      C1050   1.406       .  A
C1050      H1054   1.083       .  S
C1051      F1064   1.385       .  S
C1051      F1065   1.382       .  S
C1051      F1066   1.382       .  S
C1053      F1061   1.385       .  S
C1053      F1062   1.383   1_455  S
C1053      F1063   1.381       .  S
C1067      C1068   1.404       .  A
C1067      C1072   1.408       .  A
C1067      H1077   1.083       .  S
C1068      C1069   1.415       .  A
C1068      C1073   1.489       .  S
C1069      C1074   1.518       .  S
C1069      C1070   1.408       .  A
C1070      C1071   1.406       .  A
C1070      H1075   1.083       .  S
C1071      C1072   1.414       .  A
C1072      C1076   1.516       .  S
C1073      C1078   1.418       .  A
C1073      C1082   1.405       .  A
C1074      F1090   1.382       .  S
C1074      F1091   1.382       .  S
C1074      F1092   1.385       .  S
C1076      F1087   1.384       .  S
C1076      F1088   1.382       .  S
C1076      F1089   1.383       .  S
C1078      C1083   1.522       .  S
C1078      C1079   1.403       .  A
C1079      C1080   1.403       .  A
C1079      H1084   1.083       .  S
C1080      C1081   1.419       .  A
C1081      C1085   1.517       .  S
C1081      C1082   1.413       .  A
C1082      H1086   1.082       .  S
C1083      F1096   1.385       .  S
C1083      F1097   1.382       .  S
C1083      F1098   1.383       .  S
C1085      F1093   1.384       .  S
C1085      F1094   1.382       .  S
C1085      F1095   1.383       .  S
C1099      C1100   1.403       .  A
C1099      C1104   1.409       .  A
C1099      H1109   1.083       .  S
C1100      C1101   1.413       .  A
C1100      C1105   1.484       .  S
C1101      C1106   1.520       .  S
C1101      C1102   1.405       .  A
C1102      C1103   1.409       .  A
C1102      H1107   1.083       .  S
C1103      C1104   1.421       .  A
C1104      C1108   1.519       .  S
C1105      C1110   1.417       .  A
C1105      C1114   1.404       .  A
C1106      F1122   1.382       .  S
C1106      F1123   1.382       .  S
C1106      F1124   1.385       .  S
C1108      F1119   1.385       .  S
C1108      F1120   1.383   1_545  S
C1108      F1121   1.383       .  S
C1110      C1115   1.519       .  S
C1110      C1111   1.408       .  A
C1111      C1112   1.402       .  A
C1111      H1116   1.083       .  S
C1112      C1113   1.411       .  A
C1113      C1117   1.517       .  S
C1113      C1114   1.405       .  A
C1114      H1118   1.083       .  S
C1115      F1128   1.384       .  S
C1115      F1129   1.382       .  S
C1115      F1130   1.382       .  S
C1117      F1125   1.382   1_545  S
C1117      F1126   1.383       .  S
C1117      F1127   1.385   1_545  S
C1131      C1132   1.404       .  A
C1131      C1136   1.409       .  A
C1131      H1141   1.082       .  S
C1132      C1133   1.414       .  A
C1132      C1137   1.484       .  S
C1133      C1138   1.519       .  S
C1133      C1134   1.403       .  A
C1134      C1135   1.405       .  A
C1134      H1139   1.084       .  S
C1135      C1136   1.416       .  A
C1136      C1140   1.517       .  S
C1137      C1142   1.416       .  A
C1137      C1146   1.404       .  A
C1138      F1154   1.382       .  S
C1138      F1155   1.383       .  S
C1138      F1156   1.385       .  S
C1140      F1151   1.384       .  S
C1140      F1152   1.382   1_565  S
C1140      F1153   1.383       .  S
C1142      C1147   1.518       .  S
C1142      C1143   1.409       .  A
C1143      C1144   1.404       .  A
C1143      H1148   1.083       .  S
C1144      C1145   1.411       .  A
C1145      C1149   1.516       .  S
C1145      C1146   1.404       .  A
C1146      H1150   1.083       .  S
C1147      F1160   1.385       .  S
C1147      F1161   1.382       .  S
C1147      F1162   1.383       .  S
C1149      F1157   1.383       .  S
C1149      F1158   1.383       .  S
C1149      F1159   1.385       .  S
C1163      C1164   1.402       .  A
C1163      C1168   1.410       .  A
C1163      H1173   1.083       .  S
C1164      C1165   1.415       .  A
C1164      C1169   1.488       .  S
C1165      C1170   1.519       .  S
C1165      C1166   1.408       .  A
C1166      C1167   1.405       .  A
C1166      H1171   1.083       .  S
C1167      C1168   1.421       .  A
C1168      C1172   1.519       .  S
C1169      C1174   1.411       .  A
C1169      C1178   1.403       .  A
C1170      F1186   1.383       .  S
C1170      F1187   1.382       .  S
C1170      F1188   1.384       .  S
C1172      F1183   1.381       .  S
C1172      F1184   1.385       .  S
C1172      F1185   1.384       .  S
C1174      C1179   1.522       .  S
C1174      C1175   1.403       .  A
C1175      C1176   1.414       .  A
C1175      H1180   1.081       .  S
C1176      C1177   1.426       .  A
C1177      C1181   1.518       .  S
C1177      C1178   1.415       .  A
C1178      H1182   1.083       .  S
C1179      F1192   1.385       .  S
C1179      F1193   1.382       .  S
C1179      F1194   1.382       .  S
C1181      F1189   1.385       .  S
C1181      F1190   1.383       .  S
C1181      F1191   1.383       .  S
C1195      C1196   1.401       .  A
C1195      C1200   1.407       .  A
C1195      H1205   1.083       .  S
C1196      C1197   1.416       .  A
C1196      C1201   1.482       .  S
C1197      C1202   1.521   1_545  S
C1197      C1198   1.407       .  A
C1198      C1199   1.402       .  A
C1198      H1203   1.083       .  S
C1199      C1200   1.417       .  A
C1200      C1204   1.518       .  S
C1201      C1206   1.413       .  A
C1201      C1210   1.404       .  A
C1202      F1218   1.382       .  S
C1202      F1219   1.382       .  S
C1202      F1220   1.384       .  S
C1204      F1215   1.385       .  S
C1204      F1216   1.383       .  S
C1204      F1217   1.382       .  S
C1206      C1211   1.521       .  S
C1206      C1207   1.403       .  A
C1207      C1208   1.406       .  A
C1207      H1212   1.083       .  S
C1208      C1209   1.417       .  A
C1209      C1213   1.518   1_545  S
C1209      C1210   1.409       .  A
C1210      H1214   1.083       .  S
C1211      F1224   1.385       .  S
C1211      F1225   1.382       .  S
C1211      F1226   1.382       .  S
C1213      F1221   1.384       .  S
C1213      F1222   1.382       .  S
C1213      F1223   1.383       .  S
C1227      C1228   1.403       .  A
C1227      C1232   1.407       .  A
C1227      H1237   1.083       .  S
C1228      C1229   1.412       .  A
C1228      C1233   1.479       .  S
C1229      C1234   1.520       .  S
C1229      C1230   1.403       .  A
C1230      C1231   1.404       .  A
C1230      H1235   1.083       .  S
C1231      C1232   1.415       .  A
C1232      C1236   1.518   1_565  S
C1233      C1238   1.417       .  A
C1233      C1242   1.400       .  A
C1234      F1250   1.382       .  S
C1234      F1251   1.382       .  S
C1234      F1252   1.384       .  S
C1236      F1247   1.384       .  S
C1236      F1248   1.382       .  S
C1236      F1249   1.383       .  S
C1238      C1243   1.520       .  S
C1238      C1239   1.405       .  A
C1239      C1240   1.399       .  A
C1239      H1244   1.083       .  S
C1240      C1241   1.418       .  A
C1241      C1245   1.519       .  S
C1241      C1242   1.405       .  A
C1242      H1246   1.083       .  S
C1243      F1256   1.384   1_565  S
C1243      F1257   1.382   1_565  S
C1243      F1258   1.382       .  S
C1245      F1253   1.385       .  S
C1245      F1254   1.382       .  S
C1245      F1255   1.383       .  S
C1259      C1260   1.405       .  A
C1259      C1264   1.408       .  A
C1259      H1269   1.083       .  S
C1260      C1261   1.417       .  A
C1260      C1265   1.492       .  S
C1261      C1266   1.518       .  S
C1261      C1262   1.412       .  A
C1262      C1263   1.405       .  A
C1262      H1267   1.083       .  S
C1263      C1264   1.413       .  A
C1264      C1268   1.516       .  S
C1265      C1270   1.414       .  A
C1265      C1274   1.408       .  A
C1266      F1282   1.382       .  S
C1266      F1283   1.382       .  S
C1266      F1284   1.385       .  S
C1268      F1279   1.383       .  S
C1268      F1280   1.384       .  S
C1268      F1281   1.383       .  S
C1270      C1275   1.521       .  S
C1270      C1271   1.405       .  A
C1271      C1272   1.408       .  A
C1271      H1276   1.083       .  S
C1272      C1273   1.418       .  A
C1273      C1277   1.516       .  S
C1273      C1274   1.417       .  A
C1274      H1278   1.083       .  S
C1275      F1288   1.385       .  S
C1275      F1289   1.382       .  S
C1275      F1290   1.382       .  S
C1277      F1285   1.385       .  S
C1277      F1286   1.383       .  S
C1277      F1287   1.383       .  S
C1291      C1292   1.405   1_556  A
C1291      C1296   1.409       .  A
C1291      H1301   1.083       .  S
C1292      C1293   1.417       .  A
C1292      C1297   1.491       .  S
C1293      C1298   1.519       .  S
C1293      C1294   1.408       .  A
C1294      C1295   1.404       .  A
C1294      H1299   1.084       .  S
C1295      C1296   1.413   1_554  A
C1296      C1300   1.513       .  S
C1297      C1302   1.417       .  A
C1297      C1306   1.406       .  A
C1298      F1314   1.382       .  S
C1298      F1315   1.383       .  S
C1298      F1316   1.385       .  S
C1300      F1311   1.383       .  S
C1300      F1312   1.384       .  S
C1300      F1313   1.383       .  S
C1302      C1307   1.519       .  S
C1302      C1303   1.409       .  A
C1303      C1304   1.405       .  A
C1303      H1308   1.083       .  S
C1304      C1305   1.413       .  A
C1305      C1309   1.516       .  S
C1305      C1306   1.409       .  A
C1306      H1310   1.083       .  S
C1307      F1320   1.384       .  S
C1307      F1321   1.382       .  S
C1307      F1322   1.383       .  S
C1309      F1317   1.383       .  S
C1309      F1318   1.383       .  S
C1309      F1319   1.384       .  S
C1323      C1324   1.407       .  A
C1323      C1328   1.412       .  A
C1323      H1333   1.083       .  S
C1324      C1325   1.415       .  A
C1324      C1329   1.484       .  S
C1325      C1330   1.520       .  S
C1325      C1326   1.402       .  A
C1326      C1327   1.407       .  A
C1326      H1331   1.085       .  S
C1327      C1328   1.415       .  A
C1328      C1332   1.516       .  S
C1329      C1334   1.415       .  A
C1329      C1338   1.404       .  A
C1330      F1346   1.383       .  S
C1330      F1347   1.382       .  S
C1330      F1348   1.384       .  S
C1332      F1343   1.384       .  S
C1332      F1344   1.383   1_556  S
C1332      F1345   1.383       .  S
C1334      C1339   1.517       .  S
C1334      C1335   1.408       .  A
C1335      C1336   1.403       .  A
C1335      H1340   1.083       .  S
C1336      C1337   1.413       .  A
C1337      C1341   1.516       .  S
C1337      C1338   1.407       .  A
C1338      H1342   1.083       .  S
C1339      F1352   1.384       .  S
C1339      F1353   1.382       .  S
C1339      F1354   1.383       .  S
C1341      F1349   1.383       .  S
C1341      F1350   1.383       .  S
C1341      F1351   1.385       .  S
C1355      C1356   1.405       .  A
C1355      C1360   1.409       .  A
C1355      H1365   1.083       .  S
C1356      C1357   1.417       .  A
C1356      C1361   1.489       .  S
C1357      C1362   1.520       .  S
C1357      C1358   1.409       .  A
C1358      C1359   1.405       .  A
C1358      H1363   1.083       .  S
C1359      C1360   1.415       .  A
C1360      C1364   1.516       .  S
C1361      C1366   1.415       .  A
C1361      C1370   1.405       .  A
C1362      F1378   1.382       .  S
C1362      F1379   1.381       .  S
C1362      F1380   1.385       .  S
C1364      F1375   1.382       .  S
C1364      F1376   1.385       .  S
C1364      F1377   1.383       .  S
C1366      C1371   1.519       .  S
C1366      C1367   1.408       .  A
C1367      C1368   1.407       .  A
C1367      H1372   1.083       .  S
C1368      C1369   1.415       .  A
C1369      C1373   1.517       .  S
C1369      C1370   1.409       .  A
C1370      H1374   1.083       .  S
C1371      F1384   1.385       .  S
C1371      F1385   1.382       .  S
C1371      F1386   1.381       .  S
C1373      F1381   1.384       .  S
C1373      F1382   1.383       .  S
C1373      F1383   1.381       .  S
C1387      C1388   1.399       .  A
C1387      C1392   1.406       .  A
C1387      H1397   1.084       .  S
C1388      C1389   1.418       .  A
C1388      C1393   1.489       .  S
C1389      C1394   1.518   1_455  S
C1389      C1390   1.412       .  A
C1390      C1391   1.404       .  A
C1390      H1395   1.083   1_455  S
C1391      C1392   1.422       .  A
C1392      C1396   1.520       .  S
C1393      C1398   1.418       .  A
C1393      C1402   1.402       .  A
C1394      F1410   1.383   1_655  S
C1394      F1411   1.382       .  S
C1394      F1412   1.384       .  S
C1396      F1407   1.382       .  S
C1396      F1408   1.385       .  S
C1396      F1409   1.384       .  S
C1398      C1403   1.519   1_455  S
C1398      C1399   1.409       .  A
C1399      C1400   1.401       .  A
C1399      H1404   1.083   1_455  S
C1400      C1401   1.418       .  A
C1401      C1405   1.518       .  S
C1401      C1402   1.409       .  A
C1402      H1406   1.083       .  S
C1403      F1416   1.385       .  S
C1403      F1417   1.382       .  S
C1403      F1418   1.382       .  S
C1405      F1413   1.384       .  S
C1405      F1414   1.383       .  S
C1405      F1415   1.383       .  S
C1419      C1420   1.405       .  A
C1419      C1424   1.412       .  A
C1419      H1429   1.083       .  S
C1420      C1421   1.414       .  A
C1420      C1425   1.489       .  S
C1421      C1426   1.520       .  S
C1421      C1422   1.406       .  A
C1422      C1423   1.407       .  A
C1422      H1427   1.083   1_655  S
C1423      C1424   1.418       .  A
C1424      C1428   1.516       .  S
C1425      C1430   1.419       .  A
C1425      C1434   1.403       .  A
C1426      F1442   1.382   1_655  S
C1426      F1443   1.383       .  S
C1426      F1444   1.385   1_655  S
C1428      F1439   1.385       .  S
C1428      F1440   1.382       .  S
C1428      F1441   1.382       .  S
C1430      C1435   1.519       .  S
C1430      C1431   1.407       .  A
C1431      C1432   1.399       .  A
C1431      H1436   1.083       .  S
C1432      C1433   1.416       .  A
C1433      C1437   1.519       .  S
C1433      C1434   1.409       .  A
C1434      H1438   1.083       .  S
C1435      F1448   1.385       .  S
C1435      F1449   1.382       .  S
C1435      F1450   1.382       .  S
C1437      F1445   1.384       .  S
C1437      F1446   1.383       .  S
C1437      F1447   1.383       .  S
C1451      C1452   1.404       .  A
C1451      C1456   1.411       .  A
C1451      H1461   1.083       .  S
C1452      C1453   1.417       .  A
C1452      C1457   1.492       .  S
C1453      C1458   1.518       .  S
C1453      C1454   1.408       .  A
C1454      C1455   1.402       .  A
C1454      H1459   1.083       .  S
C1455      C1456   1.418       .  A
C1456      C1460   1.518       .  S
C1457      C1462   1.411       .  A
C1457      C1466   1.403       .  A
C1458      F1474   1.382       .  S
C1458      F1475   1.382       .  S
C1458      F1476   1.385       .  S
C1460      F1471   1.385       .  S
C1460      F1472   1.383       .  S
C1460      F1473   1.382       .  S
C1462      C1467   1.521       .  S
C1462      C1463   1.406       .  A
C1463      C1464   1.414       .  A
C1463      H1468   1.081       .  S
C1464      C1465   1.428       .  A
C1465      C1469   1.518       .  S
C1465      C1466   1.416       .  A
C1466      H1470   1.083       .  S
C1467      F1480   1.384       .  S
C1467      F1481   1.382       .  S
C1467      F1482   1.382       .  S
C1469      F1477   1.383       .  S
C1469      F1478   1.379       .  S
C1469      F1479   1.385       .  S
C1483      C1484   1.401       .  A
C1483      C1488   1.407       .  A
C1483      H1493   1.083       .  S
C1484      C1485   1.417   1_554  A
C1484      C1489   1.486       .  S
C1485      C1490   1.519       .  S
C1485      C1486   1.409       .  A
C1486      C1487   1.402   1_556  A
C1486      H1491   1.083       .  S
C1487      C1488   1.418       .  A
C1488      C1492   1.519       .  S
C1489      C1494   1.413       .  A
C1489      C1498   1.404   1_554  A
C1490      F1506   1.382       .  S
C1490      F1507   1.382       .  S
C1490      F1508   1.384       .  S
C1492      F1503   1.384       .  S
C1492      F1504   1.383       .  S
C1492      F1505   1.382       .  S
C1494      C1499   1.520       .  S
C1494      C1495   1.404       .  A
C1495      C1496   1.407       .  A
C1495      H1500   1.083       .  S
C1496      C1497   1.421   1_554  A
C1497      C1501   1.518       .  S
C1497      C1498   1.412       .  A
C1498      H1502   1.083       .  S
C1499      F1512   1.385       .  S
C1499      F1513   1.382       .  S
C1499      F1514   1.382       .  S
C1501      F1509   1.382       .  S
C1501      F1510   1.381       .  S
C1501      F1511   1.385       .  S
C1515      C1516   1.398       .  A
C1515      C1520   1.404       .  A
C1515      H1525   1.084       .  S
C1516      C1517   1.417       .  A
C1516      C1521   1.483       .  S
C1517      C1522   1.519       .  S
C1517      C1518   1.410       .  A
C1518      C1519   1.402       .  A
C1518      H1523   1.081       .  S
C1519      C1520   1.418       .  A
C1520      C1524   1.514   1_556  S
C1521      C1526   1.418       .  A
C1521      C1530   1.401       .  A
C1522      F1538   1.382       .  S
C1522      F1539   1.382       .  S
C1522      F1540   1.384       .  S
C1524      F1535   1.381       .  S
C1524      F1536   1.385       .  S
C1524      F1537   1.383       .  S
C1526      C1531   1.519       .  S
C1526      C1527   1.407       .  A
C1527      C1528   1.400       .  A
C1527      H1532   1.083       .  S
C1528      C1529   1.419       .  A
C1529      C1533   1.520       .  S
C1529      C1530   1.407       .  A
C1530      H1534   1.083       .  S
C1531      F1544   1.384       .  S
C1531      F1545   1.382       .  S
C1531      F1546   1.382       .  S
C1533      F1541   1.383       .  S
C1533      F1542   1.381       .  S
C1533      F1543   1.385       .  S
C1547      C1548   1.406       .  A
C1547      C1552   1.409       .  A
C1547      H1557   1.083       .  S
C1548      C1549   1.419       .  A
C1548      C1553   1.486       .  S
C1549      C1554   1.518       .  S
C1549      C1550   1.405       .  A
C1550      C1551   1.401       .  A
C1550      H1555   1.085       .  S
C1551      C1552   1.413       .  A
C1552      C1556   1.518       .  S
C1553      C1558   1.413       .  A
C1553      C1562   1.395       .  A
C1554      F1570   1.383       .  S
C1554      F1571   1.381       .  S
C1554      F1572   1.384       .  S
C1556      F1567   1.382       .  S
C1556      F1568   1.384       .  S
C1556      F1569   1.384       .  S
C1558      C1563   1.516       .  S
C1558      C1559   1.412       .  A
C1559      C1560   1.410       .  A
C1559      H1564   1.082       .  S
C1560      C1561   1.432       .  A
C1561      C1565   1.523       .  S
C1561      C1562   1.406       .  A
C1562      H1566   1.083       .  S
C1563      F1576   1.384       .  S
C1563      F1577   1.383       .  S
C1563      F1578   1.383       .  S
C1565      F1573   1.385       .  S
C1565      F1574   1.383       .  S
C1565      F1575   1.380       .  S
C1579      C1580   1.403       .  A
C1579      C1584   1.412       .  A
C1579      H1589   1.084       .  S
C1580      C1581   1.415       .  A
C1580      C1585   1.493       .  S
C1581      C1586   1.519       .  S
C1581      C1582   1.406       .  A
C1582      C1583   1.403       .  A
C1582      H1587   1.080       .  S
C1583      C1584   1.423       .  A
C1584      C1588   1.518       .  S
C1585      C1590   1.419       .  A
C1585      C1594   1.400       .  A
C1586      F1602   1.383       .  S
C1586      F1603   1.382       .  S
C1586      F1604   1.385       .  S
C1588      F1599   1.383       .  S
C1588      F1600   1.383       .  S
C1588      F1601   1.380       .  S
C1590      C1595   1.518       .  S
C1590      C1591   1.412       .  A
C1591      C1592   1.402       .  A
C1591      H1596   1.083       .  S
C1592      C1593   1.423       .  A
C1593      C1597   1.519       .  S
C1593      C1594   1.407       .  A
C1594      H1598   1.084       .  S
C1595      F1608   1.384       .  S
C1595      F1609   1.383       .  S
C1595      F1610   1.383       .  S
C1597      F1605   1.384       .  S
C1597      F1606   1.382       .  S
C1597      F1607   1.383       .  S
C1611      C1612   1.404       .  A
C1611      C1616   1.409       .  A
C1611      H1621   1.083       .  S
C1612      C1613   1.416   1_545  A
C1612      C1617   1.486       .  S
C1613      C1618   1.521       .  S
C1613      C1614   1.405       .  A
C1614      C1615   1.404   1_565  A
C1614      H1619   1.084       .  S
C1615      C1616   1.413       .  A
C1616      C1620   1.513       .  S
C1617      C1622   1.414       .  A
C1617      C1626   1.404       .  A
C1618      F1634   1.382       .  S
C1618      F1635   1.382       .  S
C1618      F1636   1.385       .  S
C1620      F1631   1.384       .  S
C1620      F1632   1.381       .  S
C1620      F1633   1.382       .  S
C1622      C1627   1.520       .  S
C1622      C1623   1.405       .  A
C1623      C1624   1.406       .  A
C1623      H1628   1.083       .  S
C1624      C1625   1.416       .  A
C1625      C1629   1.518       .  S
C1625      C1626   1.410       .  A
C1626      H1630   1.083       .  S
C1627      F1640   1.385       .  S
C1627      F1641   1.382       .  S
C1627      F1642   1.382   1_545  S
C1629      F1637   1.384       .  S
C1629      F1638   1.382       .  S
C1629      F1639   1.384       .  S
C1643      C1644   1.405       .  A
C1643      C1648   1.412       .  A
C1643      H1653   1.083       .  S
C1644      C1645   1.412       .  A
C1644      C1649   1.486       .  S
C1645      C1650   1.521       .  S
C1645      C1646   1.403       .  A
C1646      C1647   1.408       .  A
C1646      H1651   1.083       .  S
C1647      C1648   1.418       .  A
C1648      C1652   1.517       .  S
C1649      C1654   1.418       .  A
C1649      C1658   1.402       .  A
C1650      F1666   1.382       .  S
C1650      F1667   1.383       .  S
C1650      F1668   1.384       .  S
C1652      F1663   1.382   1_565  S
C1652      F1664   1.384       .  S
C1652      F1665   1.383       .  S
C1654      C1659   1.520       .  S
C1654      C1655   1.407       .  A
C1655      C1656   1.401       .  A
C1655      H1660   1.083       .  S
C1656      C1657   1.418       .  A
C1657      C1661   1.518       .  S
C1657      C1658   1.409       .  A
C1658      H1662   1.083       .  S
C1659      F1672   1.384   1_565  S
C1659      F1673   1.382   1_565  S
C1659      F1674   1.382       .  S
C1661      F1669   1.384       .  S
C1661      F1670   1.383       .  S
C1661      F1671   1.382       .  S
C1675      C1676   1.403       .  A
C1675      C1680   1.412       .  A
C1675      H1685   1.083       .  S
C1676      C1677   1.420       .  A
C1676      C1681   1.496       .  S
C1677      C1682   1.519       .  S
C1677      C1678   1.412       .  A
C1678      C1679   1.402       .  A
C1678      H1683   1.083       .  S
C1679      C1680   1.420       .  A
C1680      C1684   1.519       .  S
C1681      C1686   1.419       .  A
C1681      C1690   1.404       .  A
C1682      F1698   1.382       .  S
C1682      F1699   1.382       .  S
C1682      F1700   1.385       .  S
C1684      F1695   1.385       .  S
C1684      F1696   1.383       .  S
C1684      F1697   1.382       .  S
C1686      C1691   1.518       .  S
C1686      C1687   1.412       .  A
C1687      C1688   1.402       .  A
C1687      H1692   1.083       .  S
C1688      C1689   1.416       .  A
C1689      C1693   1.518       .  S
C1689      C1690   1.411       .  A
C1690      H1694   1.083       .  S
C1691      F1704   1.385   1_565  S
C1691      F1705   1.382       .  S
C1691      F1706   1.382   1_565  S
C1693      F1701   1.384       .  S
C1693      F1702   1.382       .  S
C1693      F1703   1.385       .  S
C1707      C1708   1.405   1_565  A
C1707      C1712   1.412       .  A
C1707      H1717   1.082       .  S
C1708      C1709   1.418       .  A
C1708      C1713   1.495       .  S
C1709      C1714   1.520       .  S
C1709      C1710   1.409       .  A
C1710      C1711   1.405       .  A
C1710      H1715   1.083       .  S
C1711      C1712   1.416   1_545  A
C1712      C1716   1.517       .  S
C1713      C1718   1.418       .  A
C1713      C1722   1.406       .  A
C1714      F1730   1.381       .  S
C1714      F1731   1.383       .  S
C1714      F1732   1.385       .  S
C1716      F1727   1.384       .  S
C1716      F1728   1.381       .  S
C1716      F1729   1.383       .  S
C1718      C1723   1.519       .  S
C1718      C1719   1.410       .  A
C1719      C1720   1.405       .  A
C1719      H1724   1.083       .  S
C1720      C1721   1.413       .  A
C1721      C1725   1.516       .  S
C1721      C1722   1.410       .  A
C1722      H1726   1.083       .  S
C1723      F1736   1.385       .  S
C1723      F1737   1.382       .  S
C1723      F1738   1.382       .  S
C1725      F1733   1.383   1_545  S
C1725      F1734   1.382       .  S
C1725      F1735   1.385   1_545  S
C1739      C1740   1.404       .  A
C1739      C1744   1.407       .  A
C1739      H1749   1.083       .  S
C1740      C1741   1.416       .  A
C1740      C1745   1.488       .  S
C1741      C1746   1.519       .  S
C1741      C1742   1.410       .  A
C1742      C1743   1.404       .  A
C1742      H1747   1.083       .  S
C1743      C1744   1.412       .  A
C1744      C1748   1.516       .  S
C1745      C1750   1.414       .  A
C1745      C1754   1.404       .  A
C1746      F1762   1.382       .  S
C1746      F1763   1.381       .  S
C1746      F1764   1.385       .  S
C1748      F1759   1.383       .  S
C1748      F1760   1.384       .  S
C1748      F1761   1.384       .  S
C1750      C1755   1.521       .  S
C1750      C1751   1.407       .  A
C1751      C1752   1.407       .  A
C1751      H1756   1.083       .  S
C1752      C1753   1.420       .  A
C1753      C1757   1.518       .  S
C1753      C1754   1.412       .  A
C1754      H1758   1.083       .  S
C1755      F1768   1.384       .  S
C1755      F1769   1.382       .  S
C1755      F1770   1.382       .  S
C1757      F1765   1.385       .  S
C1757      F1766   1.383       .  S
C1757      F1767   1.382       .  S
C1771      C1772   1.404       .  A
C1771      C1776   1.408       .  A
C1771      H1781   1.083       .  S
C1772      C1773   1.417       .  A
C1772      C1777   1.490       .  S
C1773      C1778   1.519       .  S
C1773      C1774   1.410       .  A
C1774      C1775   1.404       .  A
C1774      H1779   1.083       .  S
C1775      C1776   1.412       .  A
C1776      C1780   1.516       .  S
C1777      C1782   1.418       .  A
C1777      C1786   1.400       .  A
C1778      F1794   1.382       .  S
C1778      F1795   1.382       .  S
C1778      F1796   1.385       .  S
C1780      F1791   1.385       .  S
C1780      F1792   1.383       .  S
C1780      F1793   1.383       .  S
C1782      C1787   1.518       .  S
C1782      C1783   1.411       .  A
C1783      C1784   1.404       .  A
C1783      H1788   1.083       .  S
C1784      C1785   1.425       .  A
C1785      C1789   1.521       .  S
C1785      C1786   1.407       .  A
C1786      H1790   1.083       .  S
C1787      F1800   1.384       .  S
C1787      F1801   1.382       .  S
C1787      F1802   1.382       .  S
C1789      F1797   1.383       .  S
C1789      F1798   1.383       .  S
C1789      F1799   1.385       .  S
C1803      C1804   1.406       .  A
C1803      C1808   1.414       .  A
C1803      H1813   1.083       .  S
C1804      C1805   1.416       .  A
C1804      C1809   1.498       .  S
C1805      C1810   1.519       .  S
C1805      C1806   1.410       .  A
C1806      C1807   1.409       .  A
C1806      H1811   1.083       .  S
C1807      C1808   1.418       .  A
C1808      C1812   1.516       .  S
C1809      C1814   1.421       .  A
C1809      C1818   1.405       .  A
C1810      F1826   1.382       .  S
C1810      F1827   1.383       .  S
C1810      F1828   1.384       .  S
C1812      F1823   1.383       .  S
C1812      F1824   1.385       .  S
C1812      F1825   1.381       .  S
C1814      C1819   1.519       .  S
C1814      C1815   1.412       .  A
C1815      C1816   1.402       .  A
C1815      H1820   1.082       .  S
C1816      C1817   1.414       .  A
C1817      C1821   1.515       .  S
C1817      C1818   1.411       .  A
C1818      H1822   1.083       .  S
C1819      F1832   1.385       .  S
C1819      F1833   1.382       .  S
C1819      F1834   1.382       .  S
C1821      F1829   1.384       .  S
C1821      F1830   1.381       .  S
C1821      F1831   1.384       .  S
C1835      C1836   1.401       .  A
C1835      C1840   1.407       .  A
C1835      H1845   1.083       .  S
C1836      C1837   1.418       .  A
C1836      C1841   1.487       .  S
C1837      C1842   1.518       .  S
C1837      C1838   1.408       .  A
C1838      C1839   1.401       .  A
C1838      H1843   1.083       .  S
C1839      C1840   1.418       .  A
C1840      C1844   1.518       .  S
C1841      C1846   1.419       .  A
C1841      C1850   1.398       .  A
C1842      F1858   1.382       .  S
C1842      F1859   1.382       .  S
C1842      F1860   1.385       .  S
C1844      F1855   1.381       .  S
C1844      F1856   1.385       .  S
C1844      F1857   1.383       .  S
C1846      C1851   1.518       .  S
C1846      C1847   1.413       .  A
C1847      C1848   1.403       .  A
C1847      H1852   1.083       .  S
C1848      C1849   1.417       .  A
C1849      C1853   1.514       .  S
C1849      C1850   1.404       .  A
C1850      H1854   1.083       .  S
C1851      F1864   1.384       .  S
C1851      F1865   1.383       .  S
C1851      F1866   1.382       .  S
C1853      F1861   1.384       .  S
C1853      F1862   1.383       .  S
C1853      F1863   1.382       .  S
C1867      C1868   1.403       .  A
C1867      C1872   1.407       .  A
C1867      H1877   1.083       .  S
C1868      C1869   1.417       .  A
C1868      C1873   1.488       .  S
C1869      C1874   1.519       .  S
C1869      C1870   1.410       .  A
C1870      C1871   1.403       .  A
C1870      H1875   1.083       .  S
C1871      C1872   1.413       .  A
C1872      C1876   1.517       .  S
C1873      C1878   1.414       .  A
C1873      C1882   1.406       .  A
C1874      F1890   1.382       .  S
C1874      F1891   1.382       .  S
C1874      F1892   1.384       .  S
C1876      F1887   1.384       .  S
C1876      F1888   1.383       .  S
C1876      F1889   1.383       .  S
C1878      C1883   1.521       .  S
C1878      C1879   1.405       .  A
C1879      C1880   1.408       .  A
C1879      H1884   1.082       .  S
C1880      C1881   1.417       .  A
C1881      C1885   1.517       .  S
C1881      C1882   1.412       .  A
C1882      H1886   1.083       .  S
C1883      F1896   1.385       .  S
C1883      F1897   1.382       .  S
C1883      F1898   1.382       .  S
C1885      F1893   1.384   1_655  S
C1885      F1894   1.382       .  S
C1885      F1895   1.384   1_655  S
C1899      C1900   1.405       .  A
C1899      C1904   1.410       .  A
C1899      H1909   1.083       .  S
C1900      C1901   1.415       .  A
C1900      C1905   1.489       .  S
C1901      C1906   1.519       .  S
C1901      C1902   1.409       .  A
C1902      C1903   1.405       .  A
C1902      H1907   1.083       .  S
C1903      C1904   1.414       .  A
C1904      C1908   1.516       .  S
C1905      C1910   1.419       .  A
C1905      C1914   1.399       .  A
C1906      F1922   1.382   1_455  S
C1906      F1923   1.381       .  S
C1906      F1924   1.383       .  S
C1908      F1919   1.383       .  S
C1908      F1920   1.385       .  S
C1908      F1921   1.383       .  S
C1910      C1915   1.519       .  S
C1910      C1911   1.413       .  A
C1911      C1912   1.403       .  A
C1911      H1916   1.080       .  S
C1912      C1913   1.419   1_455  A
C1913      C1917   1.515       .  S
C1913      C1914   1.404   1_655  A
C1914      H1918   1.084   1_455  S
C1915      F1928   1.384       .  S
C1915      F1929   1.383       .  S
C1915      F1930   1.381       .  S
C1917      F1925   1.382       .  S
C1917      F1926   1.381       .  S
C1917      F1927   1.384       .  S
C1931      C1932   1.395       .  A
C1931      C1936   1.402       .  A
C1931      H1941   1.084       .  S
C1932      C1933   1.414       .  A
C1932      C1937   1.482       .  S
C1933      C1938   1.517       .  S
C1933      C1934   1.411       .  A
C1934      C1935   1.406       .  A
C1934      H1939   1.083       .  S
C1935      C1936   1.428       .  A
C1936      C1940   1.523   1_655  S
C1937      C1942   1.417       .  A
C1937      C1946   1.401       .  A
C1938      F1954   1.383       .  S
C1938      F1955   1.381       .  S
C1938      F1956   1.384       .  S
C1940      F1951   1.386       .  S
C1940      F1952   1.384       .  S
C1940      F1953   1.382   1_455  S
C1942      C1947   1.521       .  S
C1942      C1943   1.406       .  A
C1943      C1944   1.401       .  A
C1943      H1948   1.083       .  S
C1944      C1945   1.418       .  A
C1945      C1949   1.519       .  S
C1945      C1946   1.407       .  A
C1946      H1950   1.083       .  S
C1947      F1960   1.385       .  S
C1947      F1961   1.382       .  S
C1947      F1962   1.381       .  S
C1949      F1957   1.382       .  S
C1949      F1958   1.383       .  S
C1949      F1959   1.384       .  S
C1963      C1964   1.400       .  A
C1963      C1968   1.407       .  A
C1963      H1973   1.083       .  S
C1964      C1965   1.418       .  A
C1964      C1969   1.485       .  S
C1965      C1970   1.520       .  S
C1965      C1966   1.408       .  A
C1966      C1967   1.400       .  A
C1966      H1971   1.083       .  S
C1967      C1968   1.419       .  A
C1968      C1972   1.519       .  S
C1969      C1974   1.417       .  A
C1969      C1978   1.396       .  A
C1970      F1986   1.382       .  S
C1970      F1987   1.382       .  S
C1970      F1988   1.384       .  S
C1972      F1983   1.384       .  S
C1972      F1984   1.383       .  S
C1972      F1985   1.382       .  S
C1974      C1979   1.517       .  S
C1974      C1975   1.412       .  A
C1975      C1976   1.404       .  A
C1975      H1980   1.083       .  S
C1976      C1977   1.425   1_455  A
C1977      C1981   1.518       .  S
C1977      C1978   1.401   1_655  A
C1978      H1982   1.084       .  S
C1979      F1992   1.384       .  S
C1979      F1993   1.382       .  S
C1979      F1994   1.382       .  S
C1981      F1989   1.381       .  S
C1981      F1990   1.383       .  S
C1981      F1991   1.385       .  S
C1995      C1996   1.407       .  A
C1995      C2000   1.411       .  A
C1995      H2005   1.083       .  S
C1996      C1997   1.416       .  A
C1996      C2001   1.491       .  S
C1997      C2002   1.519       .  S
C1997      C1998   1.408       .  A
C1998      C1999   1.405       .  A
C1998      H2003   1.083       .  S
C1999      C2000   1.414       .  A
C2000      C2004   1.516       .  S
C2001      C2006   1.416       .  A
C2001      C2010   1.408       .  A
C2002      F2018   1.382       .  S
C2002      F2019   1.382       .  S
C2002      F2020   1.384       .  S
C2004      F2015   1.382       .  S
C2004      F2016   1.385       .  S
C2004      F2017   1.383       .  S
C2006      C2011   1.520       .  S
C2006      C2007   1.406       .  A
C2007      C2008   1.404       .  A
C2007      H2012   1.084       .  S
C2008      C2009   1.414       .  A
C2009      C2013   1.516       .  S
C2009      C2010   1.412       .  A
C2010      H2014   1.083       .  S
C2011      F2024   1.385       .  S
C2011      F2025   1.382       .  S
C2011      F2026   1.381       .  S
C2013      F2021   1.385       .  S
C2013      F2022   1.383       .  S
C2013      F2023   1.383       .  S
C2027      C2028   1.404       .  A
C2027      C2032   1.408       .  A
C2027      H2037   1.083       .  S
C2028      C2029   1.413       .  A
C2028      C2033   1.484       .  S
C2029      C2034   1.519       .  S
C2029      C2030   1.407       .  A
C2030      C2031   1.407       .  A
C2030      H2035   1.083       .  S
C2031      C2032   1.415       .  A
C2032      C2036   1.517       .  S
C2033      C2038   1.416       .  A
C2033      C2042   1.404       .  A
C2034      F2050   1.382       .  S
C2034      F2051   1.382       .  S
C2034      F2052   1.384       .  S
C2036      F2047   1.385       .  S
C2036      F2048   1.382       .  S
C2036      F2049   1.383       .  S
C2038      C2043   1.522       .  S
C2038      C2039   1.403       .  A
C2039      C2040   1.402       .  A
C2039      H2044   1.084       .  S
C2040      C2041   1.418       .  A
C2041      C2045   1.517       .  S
C2041      C2042   1.409       .  A
C2042      H2046   1.084       .  S
C2043      F2056   1.385       .  S
C2043      F2057   1.382       .  S
C2043      F2058   1.382       .  S
C2045      F2053   1.383       .  S
C2045      F2054   1.381       .  S
C2045      F2055   1.383       .  S
C2059      C2060   1.401       .  A
C2059      C2064   1.407       .  A
C2059      H2069   1.083       .  S
C2060      C2061   1.419       .  A
C2060      C2065   1.485       .  S
C2061      C2066   1.520       .  S
C2061      C2062   1.407       .  A
C2062      C2063   1.401       .  A
C2062      H2067   1.083       .  S
C2063      C2064   1.417       .  A
C2064      C2068   1.518       .  S
C2065      C2070   1.414       .  A
C2065      C2074   1.403       .  A
C2066      F2082   1.382       .  S
C2066      F2083   1.382       .  S
C2066      F2084   1.385       .  S
C2068      F2079   1.385       .  S
C2068      F2080   1.383       .  S
C2068      F2081   1.382       .  S
C2070      C2075   1.519       .  S
C2070      C2071   1.406       .  A
C2071      C2072   1.403       .  A
C2071      H2076   1.081       .  S
C2072      C2073   1.416       .  A
C2073      C2077   1.515       .  S
C2073      C2074   1.408       .  A
C2074      H2078   1.083       .  S
C2075      F2088   1.384       .  S
C2075      F2089   1.382       .  S
C2075      F2090   1.382       .  S
C2077      F2085   1.382       .  S
C2077      F2086   1.382       .  S
C2077      F2087   1.384       .  S
C2091      C2092   1.404       .  A
C2091      C2096   1.416       .  A
C2091      H2101   1.083       .  S
C2092      C2093   1.411       .  A
C2092      C2097   1.486       .  S
C2093      C2098   1.523       .  S
C2093      C2094   1.401       .  A
C2094      C2095   1.413       .  A
C2094      H2099   1.081       .  S
C2095      C2096   1.424       .  A
C2096      C2100   1.517       .  S
C2097      C2102   1.416       .  A
C2097      C2106   1.401       .  A
C2098      F2114   1.382       .  S
C2098      F2115   1.382       .  S
C2098      F2116   1.384       .  S
C2100      F2111   1.385       .  S
C2100      F2112   1.383       .  S
C2100      F2113   1.383       .  S
C2102      C2107   1.518       .  S
C2102      C2103   1.411       .  A
C2103      C2104   1.405       .  A
C2103      H2108   1.083       .  S
C2104      C2105   1.415       .  A
C2105      C2109   1.519       .  S
C2105      C2106   1.405       .  A
C2106      H2110   1.083       .  S
C2107      F2120   1.385       .  S
C2107      F2121   1.382       .  S
C2107      F2122   1.382       .  S
C2109      F2117   1.384       .  S
C2109      F2118   1.381       .  S
C2109      F2119   1.383       .  S
C2123      C2124   1.406       .  A
C2123      C2128   1.412   1_554  A
C2123      H2133   1.083   1_554  S
C2124      C2125   1.413       .  A
C2124      C2129   1.485       .  S
C2125      C2130   1.521       .  S
C2125      C2126   1.403       .  A
C2126      C2127   1.406       .  A
C2126      H2131   1.083       .  S
C2127      C2128   1.416   1_554  A
C2128      C2132   1.517       .  S
C2129      C2134   1.417       .  A
C2129      C2138   1.403       .  A
C2130      F2146   1.382       .  S
C2130      F2147   1.383       .  S
C2130      F2148   1.384       .  S
C2132      F2143   1.384       .  S
C2132      F2144   1.385       .  S
C2132      F2145   1.382       .  S
C2134      C2139   1.519   1_554  S
C2134      C2135   1.405       .  A
C2135      C2136   1.400       .  A
C2135      H2140   1.083       .  S
C2136      C2137   1.417       .  A
C2137      C2141   1.518       .  S
C2137      C2138   1.408       .  A
C2138      H2142   1.083       .  S
C2139      F2152   1.385       .  S
C2139      F2153   1.382       .  S
C2139      F2154   1.382       .  S
C2141      F2149   1.382       .  S
C2141      F2150   1.382       .  S
C2141      F2151   1.385       .  S
C2155      C2156   1.405       .  A
C2155      C2160   1.414       .  A
C2155      H2165   1.083       .  S
C2156      C2157   1.414       .  A
C2156      C2161   1.494       .  S
C2157      C2162   1.520       .  S
C2157      C2158   1.408       .  A
C2158      C2159   1.408       .  A
C2158      H2163   1.083       .  S
C2159      C2160   1.420       .  A
C2160      C2164   1.518       .  S
C2161      C2166   1.418       .  A
C2161      C2170   1.407       .  A
C2162      F2178   1.382       .  S
C2162      F2179   1.383       .  S
C2162      F2180   1.385       .  S
C2164      F2175   1.383       .  S
C2164      F2176   1.385       .  S
C2164      F2177   1.381       .  S
C2166      C2171   1.520   1_556  S
C2166      C2167   1.408       .  A
C2167      C2168   1.403       .  A
C2167      H2172   1.084   1_556  S
C2168      C2169   1.413       .  A
C2169      C2173   1.516       .  S
C2169      C2170   1.413       .  A
C2170      H2174   1.083       .  S
C2171      F2184   1.385       .  S
C2171      F2185   1.382       .  S
C2171      F2186   1.382       .  S
C2173      F2181   1.383       .  S
C2173      F2182   1.383       .  S
C2173      F2183   1.384       .  S
C2187      C2188   1.400       .  A
C2187      C2192   1.407       .  A
C2187      H2197   1.085       .  S
C2188      C2189   1.419       .  A
C2188      C2193   1.492       .  S
C2189      C2194   1.519       .  S
C2189      C2190   1.412       .  A
C2190      C2191   1.404       .  A
C2190      H2195   1.083       .  S
C2191      C2192   1.424       .  A
C2192      C2196   1.519       .  S
C2193      C2198   1.418       .  A
C2193      C2202   1.405       .  A
C2194      F2210   1.382       .  S
C2194      F2211   1.382       .  S
C2194      F2212   1.385       .  S
C2196      F2207   1.383       .  S
C2196      F2208   1.384       .  S
C2196      F2209   1.380       .  S
C2198      C2203   1.519   1_554  S
C2198      C2199   1.409       .  A
C2199      C2200   1.403       .  A
C2199      H2204   1.083   1_554  S
C2200      C2201   1.416       .  A
C2201      C2205   1.515       .  S
C2201      C2202   1.411       .  A
C2202      H2206   1.083       .  S
C2203      F2216   1.385       .  S
C2203      F2217   1.382       .  S
C2203      F2218   1.382       .  S
C2205      F2213   1.385       .  S
C2205      F2214   1.383       .  S
C2205      F2215   1.383       .  S
C2219      C2220   1.403       .  A
C2219      C2224   1.410       .  A
C2219      H2229   1.083       .  S
C2220      C2221   1.418       .  A
C2220      C2225   1.492       .  S
C2221      C2226   1.519       .  S
C2221      C2222   1.410       .  A
C2222      C2223   1.403       .  A
C2222      H2227   1.083       .  S
C2223      C2224   1.419       .  A
C2224      C2228   1.519       .  S
C2225      C2230   1.413       .  A
C2225      C2234   1.405       .  A
C2226      F2242   1.382       .  S
C2226      F2243   1.383       .  S
C2226      F2244   1.384       .  S
C2228      F2239   1.384       .  S
C2228      F2240   1.383       .  S
C2228      F2241   1.381       .  S
C2230      C2235   1.522       .  S
C2230      C2231   1.405       .  A
C2231      C2232   1.412       .  A
C2231      H2236   1.082       .  S
C2232      C2233   1.423       .  A
C2233      C2237   1.517       .  S
C2233      C2234   1.416       .  A
C2234      H2238   1.083       .  S
C2235      F2248   1.384       .  S
C2235      F2249   1.382       .  S
C2235      F2250   1.383       .  S
C2237      F2245   1.383       .  S
C2237      F2246   1.384       .  S
C2237      F2247   1.385       .  S
C2251      C2252   1.404       .  A
C2251      C2256   1.407       .  A
C2251      H2261   1.083       .  S
C2252      C2253   1.416       .  A
C2252      C2257   1.486       .  S
C2253      C2258   1.519       .  S
C2253      C2254   1.409       .  A
C2254      C2255   1.403       .  A
C2254      H2259   1.083       .  S
C2255      C2256   1.412       .  A
C2256      C2260   1.516       .  S
C2257      C2262   1.415       .  A
C2257      C2266   1.405       .  A
C2258      F2274   1.382       .  S
C2258      F2275   1.382       .  S
C2258      F2276   1.384       .  S
C2260      F2271   1.383       .  S
C2260      F2272   1.384       .  S
C2260      F2273   1.383       .  S
C2262      C2267   1.520       .  S
C2262      C2263   1.405       .  A
C2263      C2264   1.404       .  A
C2263      H2268   1.084       .  S
C2264      C2265   1.414       .  A
C2265      C2269   1.516       .  S
C2265      C2266   1.410       .  A
C2266      H2270   1.083       .  S
C2267      F2280   1.385       .  S
C2267      F2281   1.382       .  S
C2267      F2282   1.382       .  S
C2269      F2277   1.383       .  S
C2269      F2278   1.383       .  S
C2269      F2279   1.385       .  S
C2283      C2284   1.405       .  A
C2283      C2288   1.410       .  A
C2283      H2293   1.083       .  S
C2284      C2285   1.415       .  A
C2284      C2289   1.489       .  S
C2285      C2290   1.519       .  S
C2285      C2286   1.408       .  A
C2286      C2287   1.406       .  A
C2286      H2291   1.083       .  S
C2287      C2288   1.414       .  A
C2288      C2292   1.516       .  S
C2289      C2294   1.419       .  A
C2289      C2298   1.402       .  A
C2290      F2306   1.382       .  S
C2290      F2307   1.382       .  S
C2290      F2308   1.385       .  S
C2292      F2303   1.383       .  S
C2292      F2304   1.385       .  S
C2292      F2305   1.382       .  S
C2294      C2299   1.519       .  S
C2294      C2295   1.410       .  A
C2295      C2296   1.402       .  A
C2295      H2300   1.083       .  S
C2296      C2297   1.417       .  A
C2297      C2301   1.518       .  S
C2297      C2298   1.408       .  A
C2298      H2302   1.083       .  S
C2299      F2312   1.385       .  S
C2299      F2313   1.382       .  S
C2299      F2314   1.381       .  S
C2301      F2309   1.385       .  S
C2301      F2310   1.382       .  S
C2301      F2311   1.383       .  S
C2315      C2316   1.405       .  A
C2315      C2320   1.408       .  A
C2315      H2325   1.083       .  S
C2316      C2317   1.414       .  A
C2316      C2321   1.486       .  S
C2317      C2322   1.518       .  S
C2317      C2318   1.408       .  A
C2318      C2319   1.406       .  A
C2318      H2323   1.083       .  S
C2319      C2320   1.413       .  A
C2320      C2324   1.516       .  S
C2321      C2326   1.415       .  A
C2321      C2330   1.405       .  A
C2322      F2338   1.382       .  S
C2322      F2339   1.382       .  S
C2322      F2340   1.382       .  S
C2324      F2335   1.382       .  S
C2324      F2336   1.385       .  S
C2324      F2337   1.384       .  S
C2326      C2331   1.521       .  S
C2326      C2327   1.405       .  A
C2327      C2328   1.405       .  A
C2327      H2332   1.082       .  S
C2328      C2329   1.415       .  A
C2329      C2333   1.516       .  S
C2329      C2330   1.411       .  A
C2330      H2334   1.083       .  S
C2331      F2344   1.385       .  S
C2331      F2345   1.382       .  S
C2331      F2346   1.382       .  S
C2333      F2341   1.383       .  S
C2333      F2342   1.383       .  S
C2333      F2343   1.384       .  S
C2347      C2348   1.402       .  A
C2347      C2352   1.407       .  A
C2347      H2357   1.083       .  S
C2348      C2349   1.418       .  A
C2348      C2353   1.489       .  S
C2349      C2354   1.519       .  S
C2349      C2350   1.410       .  A
C2350      C2351   1.402       .  A
C2350      H2355   1.083       .  S
C2351      C2352   1.418       .  A
C2352      C2356   1.519       .  S
C2353      C2358   1.416       .  A
C2353      C2362   1.405       .  A
C2354      F2370   1.382       .  S
C2354      F2371   1.381       .  S
C2354      F2372   1.385       .  S
C2356      F2367   1.385       .  S
C2356      F2368   1.382       .  S
C2356      F2369   1.382       .  S
C2358      C2363   1.520       .  S
C2358      C2359   1.410       .  A
C2359      C2360   1.405       .  A
C2359      H2364   1.083       .  S
C2360      C2361   1.414       .  A
C2361      C2365   1.516       .  S
C2361      C2362   1.410       .  A
C2362      H2366   1.083       .  S
C2363      F2376   1.382       .  S
C2363      F2377   1.382       .  S
C2363      F2378   1.382       .  S
C2365      F2373   1.382       .  S
C2365      F2374   1.383       .  S
C2365      F2375   1.384       .  S
C2379      C2380   1.399       .  A
C2379      C2384   1.407       .  A
C2379      H2389   1.084       .  S
C2380      C2381   1.417       .  A
C2380      C2385   1.488       .  S
C2381      C2386   1.518       .  S
C2381      C2382   1.410       .  A
C2382      C2383   1.404       .  A
C2382      H2387   1.083       .  S
C2383      C2384   1.423       .  A
C2384      C2388   1.519       .  S
C2385      C2390   1.419       .  A
C2385      C2394   1.402       .  A
C2386      F2402   1.383       .  S
C2386      F2403   1.382       .  S
C2386      F2404   1.384       .  S
C2388      F2399   1.385       .  S
C2388      F2400   1.383       .  S
C2388      F2401   1.382       .  S
C2390      C2395   1.519       .  S
C2390      C2391   1.408       .  A
C2391      C2392   1.400       .  A
C2391      H2396   1.083       .  S
C2392      C2393   1.417       .  A
C2393      C2397   1.518       .  S
C2393      C2394   1.409       .  A
C2394      H2398   1.083       .  S
C2395      F2408   1.384       .  S
C2395      F2409   1.383       .  S
C2395      F2410   1.382       .  S
C2397      F2405   1.383       .  S
C2397      F2406   1.383       .  S
C2397      F2407   1.384       .  S
C2411      C2412   1.402       .  A
C2411      C2416   1.410       .  A
C2411      H2421   1.083       .  S
C2412      C2413   1.417       .  A
C2412      C2417   1.491       .  S
C2413      C2418   1.520       .  S
C2413      C2414   1.410       .  A
C2414      C2415   1.406       .  A
C2414      H2419   1.083       .  S
C2415      C2416   1.419       .  A
C2416      C2420   1.516       .  S
C2417      C2422   1.414       .  A
C2417      C2426   1.405       .  A
C2418      F2434   1.382       .  S
C2418      F2435   1.383       .  S
C2418      F2436   1.385       .  S
C2420      F2431   1.382       .  S
C2420      F2432   1.385       .  S
C2420      F2433   1.383       .  S
C2422      C2427   1.520       .  S
C2422      C2423   1.406       .  A
C2423      C2424   1.409       .  A
C2423      H2428   1.083       .  S
C2424      C2425   1.420       .  A
C2425      C2429   1.518       .  S
C2425      C2426   1.413       .  A
C2426      H2430   1.083       .  S
C2427      F2440   1.385       .  S
C2427      F2441   1.382       .  S
C2427      F2442   1.382       .  S
C2429      F2437   1.383       .  S
C2429      F2438   1.384       .  S
C2429      F2439   1.384       .  S
C2443      C2444   1.406       .  A
C2443      C2448   1.411       .  A
C2443      H2453   1.083       .  S
C2444      C2445   1.417       .  A
C2444      C2449   1.493       .  S
C2445      C2450   1.519       .  S
C2445      C2446   1.408       .  A
C2446      C2447   1.404       .  A
C2446      H2451   1.083       .  S
C2447      C2448   1.413       .  A
C2448      C2452   1.516       .  S
C2449      C2454   1.419       .  A
C2449      C2458   1.403       .  A
C2450      F2466   1.382       .  S
C2450      F2467   1.383       .  S
C2450      F2468   1.384       .  S
C2452      F2463   1.384       .  S
C2452      F2464   1.384       .  S
C2452      F2465   1.383       .  S
C2454      C2459   1.519       .  S
C2454      C2455   1.410       .  A
C2455      C2456   1.401       .  A
C2455      H2460   1.080       .  S
C2456      C2457   1.418       .  A
C2457      C2461   1.519       .  S
C2457      C2458   1.410       .  A
C2458      H2462   1.083       .  S
C2459      F2472   1.385       .  S
C2459      F2473   1.382       .  S
C2459      F2474   1.383       .  S
C2461      F2469   1.382       .  S
C2461      F2470   1.384       .  S
C2461      F2471   1.385       .  S
C2475      C2476   1.405       .  A
C2475      C2480   1.409       .  A
C2475      H2485   1.083       .  S
C2476      C2477   1.417       .  A
C2476      C2481   1.490       .  S
C2477      C2482   1.520       .  S
C2477      C2478   1.408       .  A
C2478      C2479   1.404       .  A
C2478      H2483   1.083       .  S
C2479      C2480   1.413       .  A
C2480      C2484   1.517       .  S
C2481      C2486   1.413       .  A
C2481      C2490   1.404       .  A
C2482      F2498   1.382       .  S
C2482      F2499   1.382       .  S
C2482      F2500   1.384       .  S
C2484      F2495   1.384       .  S
C2484      F2496   1.383       .  S
C2484      F2497   1.382       .  S
C2486      C2491   1.521       .  S
C2486      C2487   1.406       .  A
C2487      C2488   1.410       .  A
C2487      H2492   1.083       .  S
C2488      C2489   1.422       .  A
C2489      C2493   1.519       .  S
C2489      C2490   1.413       .  A
C2490      H2494   1.083       .  S
C2491      F2504   1.385       .  S
C2491      F2505   1.382       .  S
C2491      F2506   1.382       .  S
C2493      F2501   1.382       .  S
C2493      F2502   1.383       .  S
C2493      F2503   1.385       .  S
C2507      C2508   1.400       .  A
C2507      C2512   1.418       .  A
C2507      H2517   1.084       .  S
C2508      C2509   1.415       .  A
C2508      C2513   1.507       .  S
C2509      C2514   1.521       .  S
C2509      C2510   1.416       .  A
C2510      C2511   1.419       .  A
C2510      H2515   1.077       .  S
C2511      C2512   1.438       .  A
C2512      C2516   1.523       .  S
C2513      C2518   1.407       .  A
C2513      C2522   1.396       .  A
C2514      F2530   1.382       .  S
C2514      F2531   1.382       .  S
C2514      F2532   1.385       .  S
C2516      F2527   1.382       .  S
C2516      F2528   1.385       .  S
C2516      F2529   1.378       .  S
C2518      C2523   1.521       .  S
C2518      C2519   1.414       .  A
C2519      C2520   1.429       .  A
C2519      H2524   1.071   1_455  S
C2520      C2521   1.457       .  A
C2521      C2525   1.532   1_556  S
C2521      C2522   1.422       .  A
C2522      H2526   1.083       .  S
C2523      F2536   1.385   1_455  S
C2523      F2537   1.383       .  S
C2523      F2538   1.381       .  S
C2525      F2533   1.386       .  S
C2525      F2534   1.372       .  S
C2525      F2535   1.381       .  S
C2539      C2540   1.397       .  A
C2539      C2544   1.420       .  A
C2539      H2549   1.082       .  S
C2540      C2541   1.411       .  A
C2540      C2545   1.503       .  S
C2541      C2546   1.521       .  S
C2541      C2542   1.410       .  A
C2542      C2543   1.428       .  A
C2542      H2547   1.077   1_554  S
C2543      C2544   1.458       .  A
C2544      C2548   1.536   1_565  S
C2545      C2550   1.412       .  A
C2545      C2554   1.402       .  A
C2546      F2562   1.383   1_554  S
C2546      F2563   1.381       .  S
C2546      F2564   1.384       .  S
C2548      F2559   1.385       .  S
C2548      F2560   1.380       .  S
C2548      F2561   1.373       .  S
C2550      C2555   1.520       .  S
C2550      C2551   1.413       .  A
C2551      C2552   1.419       .  A
C2551      H2556   1.076       .  S
C2552      C2553   1.437       .  A
C2553      C2557   1.525       .  S
C2553      C2554   1.416       .  A
C2554      H2558   1.085       .  S
C2555      F2568   1.384       .  S
C2555      F2569   1.383       .  S
C2555      F2570   1.381       .  S
C2557      F2565   1.385       .  S
C2557      F2566   1.377       .  S
C2557      F2567   1.383       .  S
C2571      C2572   1.397       .  A
C2571      C2576   1.421   1_545  A
C2571      H2581   1.082       .  S
C2572      C2573   1.407       .  A
C2572      C2577   1.504       .  S
C2573      C2578   1.521       .  S
C2573      C2574   1.412       .  A
C2574      C2575   1.429       .  A
C2574      H2579   1.073       .  S
C2575      C2576   1.457   1_545  A
C2576      C2580   1.535       .  S
C2577      C2582   1.414       .  A
C2577      C2586   1.399       .  A
C2578      F2594   1.383       .  S
C2578      F2595   1.381       .  S
C2578      F2596   1.385       .  S
C2580      F2591   1.380       .  S
C2580      F2592   1.374       .  S
C2580      F2593   1.385       .  S
C2582      C2587   1.520       .  S
C2582      C2583   1.417       .  A
C2583      C2584   1.418       .  A
C2583      H2588   1.079       .  S
C2584      C2585   1.438       .  A
C2585      C2589   1.524       .  S
C2585      C2586   1.415       .  A
C2586      H2590   1.085       .  S
C2587      F2600   1.384       .  S
C2587      F2601   1.383       .  S
C2587      F2602   1.381       .  S
C2589      F2597   1.385       .  S
C2589      F2598   1.378       .  S
C2589      F2599   1.382       .  S
C2603      C2604   1.397       .  A
C2603      C2608   1.421   1_554  A
C2603      H2613   1.082       .  S
C2604      C2605   1.408       .  A
C2604      C2609   1.507       .  S
C2605      C2610   1.521       .  S
C2605      C2606   1.413       .  A
C2606      C2607   1.427       .  A
C2606      H2611   1.073   1_445  S
C2607      C2608   1.456   1_554  A
C2608      C2612   1.534       .  S
C2609      C2614   1.415       .  A
C2609      C2618   1.401       .  A
C2610      F2626   1.383       .  S
C2610      F2627   1.382       .  S
C2610      F2628   1.385       .  S
C2612      F2623   1.379       .  S
C2612      F2624   1.385       .  S
C2612      F2625   1.375       .  S
C2614      C2619   1.520       .  S
C2614      C2615   1.416       .  A
C2615      C2616   1.418       .  A
C2615      H2620   1.079       .  S
C2616      C2617   1.438       .  A
C2617      C2621   1.523       .  S
C2617      C2618   1.417       .  A
C2618      H2622   1.084       .  S
C2619      F2632   1.384       .  S
C2619      F2633   1.382       .  S
C2619      F2634   1.382       .  S
C2621      F2629   1.385       .  S
C2621      F2630   1.380       .  S
C2621      F2631   1.383       .  S
