geometry optimzed in LAMMPS
_audit_creation_date              2020-12-01 
_audit_creation_method            'lammps2cif' 
_symmetry_space_group_name_H-M    'P1' 
_symmetry_Int_Tables_number       1 
_symmetry_cell_setting            triclinic 
loop_ 
_symmetry_equiv_pos_as_xyz 
  x,y,z 
_cell_length_a                    40.13479599 
_cell_length_b                    40.166680740544656 
_cell_length_c                    36.38705404665772 
_cell_angle_alpha                 89.99678860718589 
_cell_angle_beta                  89.98349924288448 
_cell_angle_gamma                 90.05220108954282 
loop_ 
_atom_site_label 
_atom_site_type_symbol 
_atom_site_fract_x 
_atom_site_fract_y 
_atom_site_fract_z 
_atom_site_charge 
O1          O  0.46328590  0.02743578  0.40864583    -0.73400
O2          O  0.04195529  0.47399996  0.40707322    -0.73400
O3          O  0.03011496  0.03837206  0.40785011    -0.73500
O4          O  0.47485049  0.45996084  0.40650273    -0.73500
O5          O  0.47232167  0.45972478  0.34522262    -0.73400
O6          O  0.02826140  0.04080413  0.34659612    -0.73400
O7          O  0.04006582  0.47261363  0.34578465    -0.73400
O8          O  0.46282661  0.02914873  0.34732720    -0.73500
Ni9        Ni  0.50153339  0.99928952  0.40943010     1.25400
Ni10       Ni  0.00045136  0.50016918  0.34427037     1.25400
C11         C  0.45058920  0.03768249  0.37858368     0.88800
C12         C  0.05367200  0.46412098  0.37637589     0.88700
C13         C  0.03855690  0.05212258  0.37729313     0.88800
C14         C  0.46398689  0.44749440  0.37624796     0.88900
O15         O  0.46255334  0.02873718  0.09354147    -0.73400
O16         O  0.04218729  0.46948897  0.09751376    -0.73400
O17         O  0.47433092  0.46217983  0.09922007    -0.73500
O18         O  0.02858167  0.03878226  0.09983738    -0.73500
O19         O  0.02649661  0.03760403  0.16112783    -0.73400
O20         O  0.47438245  0.46339761  0.16055276    -0.73400
O21         O  0.04240631  0.47017324  0.15882568    -0.73400
O22         O  0.45942606  0.02755530  0.15475592    -0.73500
Ni23       Ni  0.50086474  0.00048784  0.09307005     1.25400
Ni24       Ni  0.00458740  0.50013130  0.16080857     1.25400
C25         C  0.44846594  0.03755690  0.12343345     0.88800
C26         C  0.05457699  0.46001618  0.12813632     0.88700
C27         C  0.46479238  0.45043177  0.13036374     0.88800
C28         C  0.03707927  0.05055991  0.13132030     0.88900
N29         N  0.15115274  0.24717120  0.44169467    -0.35600
N30         N  0.15538400  0.19435251  0.00110184    -0.56100
N31         N  0.15088624  0.24468632  0.05895060    -0.35600
N32         N  0.14448526  0.29654367  0.00254204    -0.56100
C33         C  0.14282618  0.21823098  0.42470482     0.28000
C34         C  0.13428598  0.27204315  0.42475111     0.28000
C35         C  0.14011743  0.21668752  0.07619237     0.28000
C36         C  0.13571076  0.27073964  0.07576485     0.28000
C37         C  0.16829143  0.18038749  0.46938533     0.36600
C38         C  0.15643407  0.17399868  0.03091875     0.36600
C39         C  0.14757798  0.31641856  0.46850622     0.36600
C40         C  0.15120202  0.31504731  0.03287094     0.36600
C41         C  0.12025968  0.22476399  0.39686417    -0.20800
C42         C  0.11407993  0.25842201  0.39785540    -0.20800
C43         C  0.11758213  0.22497145  0.10341601    -0.20800
C44         C  0.11379508  0.25876347  0.10180312    -0.20800
C45         C  0.18484970  0.15207126  0.48048419    -0.21900
C46         C  0.15777103  0.14123752  0.01952819    -0.20700
C47         C  0.16066273  0.34685309  0.47931105    -0.21900
C48         C  0.16391581  0.34567151  0.02222976    -0.21900
C49         C  0.15602075  0.18651741  0.43363661    -0.17200
C50         C  0.13866893  0.30655473  0.43213453    -0.17200
C51         C  0.14246160  0.30491419  0.06917419    -0.17200
C52         C  0.14937495  0.18375082  0.06754556    -0.17200
H53         H  0.10870170  0.20730108  0.37820354     0.15700
H54         H  0.09599611  0.27110401  0.38127073     0.15700
H55         H  0.10362462  0.20845411  0.12111981     0.15700
H56         H  0.09523006  0.27261610  0.11620765     0.15700
H57         H  0.19541506  0.13311110  0.46363261     0.13900
H58         H  0.15433760  0.11916442  0.03566155     0.13900
H59         H  0.16907951  0.36694658  0.46181942     0.13900
H60         H  0.17209157  0.36576690  0.03985620     0.13900
H61         H  0.16959868  0.25018970  0.46162352     0.27200
H62         H  0.16956459  0.24612040  0.03903796     0.27200
C63         C  0.38342790  0.38664177  0.38116061     0.87500
C64         C  0.38315271  0.35465155  0.40398719    -0.52700
C65         C  0.35202213  0.34216047  0.41062600     0.10500
C66         C  0.32391274  0.36347964  0.39305059     0.21400
C67         C  0.36409173  0.37874375  0.34564570    -0.53400
C68         C  0.33244577  0.36631419  0.35124756     0.10600
C69         C  0.36110406  0.41062534  0.40196624    -0.53000
C70         C  0.32962373  0.39927097  0.40787772     0.11100
H71         H  0.40558622  0.34376044  0.41555070     0.15600
H72         H  0.29876936  0.35336193  0.39902325     0.01400
H73         H  0.37399323  0.38481029  0.31873582     0.16000
H74         H  0.37010508  0.43461543  0.41142031     0.15700
C75         C  0.38651768  0.38668673  0.12837137     0.87500
C76         C  0.36702786  0.37716512  0.16331280    -0.52700
C77         C  0.33592578  0.36373358  0.15675567     0.10500
C78         C  0.32837640  0.36117179  0.11455803     0.21400
C79         C  0.38814822  0.35529105  0.10463841    -0.53400
C80         C  0.35775516  0.34177218  0.09682779     0.10600
C81         C  0.36339223  0.41009264  0.10780567    -0.53000
C82         C  0.33269000  0.39732326  0.10063641     0.11100
H83         H  0.37612619  0.38335279  0.19052090     0.15600
H84         H  0.30388783  0.35005108  0.10752425     0.01400
H85         H  0.41113543  0.34604598  0.09263677     0.16000
H86         H  0.37159566  0.43441713  0.09847020     0.15700
C87         C  0.11630597  0.11293425  0.12881415     0.87500
C88         C  0.13625221  0.12273587  0.16331632    -0.52700
C89         C  0.16737528  0.13584354  0.15609299     0.10500
C90         C  0.17452788  0.13784980  0.11389226     0.21400
C91         C  0.11472535  0.14402499  0.10462673    -0.53400
C92         C  0.14517148  0.15723049  0.09636898     0.10600
C93         C  0.13903910  0.08910764  0.10823538    -0.53000
C94         C  0.16973203  0.10169002  0.10044127     0.11100
H95         H  0.12739157  0.11705233  0.19076367     0.15600
H96         H  0.19908446  0.14866056  0.10649631     0.01400
H97         H  0.09169421  0.15341036  0.09287590     0.16000
H98         H  0.13059768  0.06473258  0.09933801     0.15700
C99         C  0.11860810  0.11338554  0.37884059     0.87500
C100        C  0.14088159  0.08910994  0.39920512    -0.52700
C101        C  0.17243840  0.10016146  0.40495456     0.10500
C102        C  0.17835152  0.13603027  0.39049580     0.21400
C103        C  0.11923596  0.14512906  0.40193354    -0.53400
C104        C  0.15044776  0.15744020  0.40825679     0.10600
C105        C  0.13781789  0.12153433  0.34316722    -0.53000
C106        C  0.16963784  0.13362897  0.34880362     0.11100
H107        H  0.13176945  0.06514328  0.40863141     0.15600
H108        H  0.20361085  0.14589902  0.39641388     0.01400
H109        H  0.09694700  0.15613630  0.41372167     0.16000
H110        H  0.12774416  0.11600698  0.31619691     0.15700
O111        O  0.24175070  0.04501601  0.03646653    -0.73400
O112        O  0.29322893  0.50078282  0.46542992    -0.73400
O113        O  0.24410899  0.03962888  0.46331843    -0.73500
O114        O  0.29713811  0.49592196  0.03783541    -0.73500
O115        O  0.26003547  0.45446770  0.03741588    -0.73400
O116        O  0.20699811  0.99819025  0.46221300    -0.73400
O117        O  0.25635203  0.45913612  0.46566047    -0.73400
O118        O  0.20502153  0.00323268  0.03773788    -0.73500
Ni119      Ni  0.26760520  0.02338247  0.99938496     1.25400
Ni120      Ni  0.23380113  0.47632517  0.00083143     1.25400
C121        C  0.21486416  0.03188411  0.04865306     0.88800
C122        C  0.28380763  0.47194181  0.45462075     0.88700
C123        C  0.21692384  0.02690203  0.45148876     0.88800
C124        C  0.28720342  0.46735527  0.04907256     0.88900
N125        N  0.34993101  0.25265662  0.44497171    -0.35600
N126        N  0.34763059  0.30578812  0.00093307    -0.56100
N127        N  0.35106966  0.25461955  0.05783766    -0.35600
N128        N  0.35639312  0.20356036  0.00014449    -0.56100
C129        C  0.35918930  0.28127753  0.42784919     0.28000
C130        C  0.36622815  0.22726642  0.42843993     0.28000
C131        C  0.36215771  0.28223077  0.07568211     0.28000
C132        C  0.36573315  0.22794754  0.07411114     0.28000
C133        C  0.33441251  0.31936981  0.47220381     0.36600
C134        C  0.34701951  0.32588247  0.03095363     0.36600
C135        C  0.35245191  0.18323136  0.47258813     0.36600
C136        C  0.34921632  0.18478041  0.03007949     0.36600
C137        C  0.38192085  0.27407228  0.40042847    -0.20800
C138        C  0.38713205  0.24024287  0.40180796    -0.20800
C139        C  0.38444520  0.27312418  0.10279193    -0.20800
C140        C  0.38767240  0.23922490  0.10054897    -0.20800
C141        C  0.31648814  0.34684819  0.48317966    -0.21900
C142        C  0.34591692  0.35877953  0.01986448    -0.21900
C143        C  0.33939480  0.15286682  0.48364705    -0.21900
C144        C  0.33565727  0.15466940  0.01892703    -0.21900
C145        C  0.34660136  0.31325545  0.43644345    -0.17200
C146        C  0.36082177  0.19293066  0.43603166    -0.17200
C147        C  0.35862942  0.19388055  0.06643742    -0.17200
C148        C  0.35356208  0.31555147  0.06753417    -0.17200
H149        H  0.39440504  0.29122063  0.38211942     0.15700
H150        H  0.40564357  0.22715631  0.38642015     0.15700
H151        H  0.39867049  0.28923783  0.12070343     0.15700
H152        H  0.40606516  0.22495146  0.11468015     0.15700
H153        H  0.30496077  0.36516695  0.46619687     0.13900
H154        H  0.34951135  0.38071325  0.03618605     0.13900
H155        H  0.33063604  0.13284103  0.46626325     0.13900
H156        H  0.32711822  0.13448291  0.03622618     0.13900
H157        H  0.33125165  0.25017477  0.46478440     0.27200
H158        H  0.33251456  0.25383316  0.03773720     0.27200
N159        N  0.25033132  0.34559052  0.19574819    -0.35600
N160        N  0.19959477  0.34093763  0.25278055    -0.56100
N161        N  0.24774812  0.34832738  0.31047765    -0.35600
N162        N  0.29971798  0.35739434  0.25347523    -0.56100
C163        C  0.22174457  0.35403892  0.17809027     0.28000
C164        C  0.27563344  0.36181430  0.17875047     0.28000
C165        C  0.21875234  0.35733752  0.32713785     0.28000
C166        C  0.27282682  0.36499709  0.32730055     0.28000
C167        C  0.18291723  0.33023929  0.22273132     0.36600
C168        C  0.18131148  0.33178545  0.28240814     0.36600
C169        C  0.31928672  0.35042485  0.22397819     0.36600
C170        C  0.31796912  0.35131912  0.28414996     0.36600
C171        C  0.22889583  0.37589906  0.14984307    -0.20800
C172        C  0.26255820  0.38166931  0.15130141    -0.20800
C173        C  0.22553648  0.38006423  0.35470636    -0.20800
C174        C  0.25932684  0.38568827  0.35375173    -0.20800
C175        C  0.15485367  0.31308295  0.23351049    -0.21900
C176        C  0.15364085  0.31415852  0.27113126    -0.21900
C177        C  0.34977667  0.33849546  0.23603447    -0.21900
C178        C  0.34891419  0.33896229  0.27403128    -0.21900
C179        C  0.18966904  0.34183389  0.18683182    -0.17200
C180        C  0.31002288  0.35774768  0.18696490    -0.17200
C181        C  0.30741502  0.36016349  0.32035150    -0.17200
C182        C  0.18674834  0.34475150  0.31794169    -0.17200
H183        H  0.21175052  0.38757859  0.13092552     0.15700
H184        H  0.27538980  0.39995400  0.13533813     0.15700
H185        H  0.20819291  0.39223063  0.37301119     0.15700
H186        H  0.27214702  0.40413689  0.36955468     0.15700
H187        H  0.13704522  0.30121204  0.21626788     0.13900
H188        H  0.13435862  0.30350474  0.28782123     0.13900
H189        H  0.37048415  0.33021662  0.21934458     0.13900
H190        H  0.36887778  0.33109141  0.29200139     0.13900
H191        H  0.25277116  0.32771524  0.21640717     0.27200
H192        H  0.25068786  0.32966753  0.29077760     0.27200
C193        C  0.11419329  0.38418480  0.37266464     0.87500
C194        C  0.12143601  0.36406972  0.40784261    -0.52700
C195        C  0.13242516  0.33199541  0.40165871     0.10500
C196        C  0.13435578  0.32388697  0.35968701     0.21400
C197        C  0.14598629  0.38271999  0.34953884    -0.53400
C198        C  0.15712696  0.35116923  0.34260292     0.10600
C199        C  0.08902655  0.36335853  0.35183445    -0.53000
C200        C  0.09856212  0.33149372  0.34530346     0.11100
H201        H  0.11618213  0.37397841  0.43493681     0.15600
H202        H  0.14338293  0.29852051  0.35312331     0.01400
H203        H  0.15796474  0.40477577  0.33838718     0.16000
H204        H  0.06550303  0.37378683  0.34282882     0.15700
C205        C  0.11702231  0.38016028  0.13160961     0.87500
C206        C  0.14885012  0.37932220  0.15480758    -0.52700
C207        C  0.16110900  0.34795715  0.16082964     0.10500
C208        C  0.13997853  0.32032151  0.14225842     0.21400
C209        C  0.12521571  0.36152055  0.09567916    -0.53400
C210        C  0.13740563  0.32974885  0.10057128     0.10600
C211        C  0.09302087  0.35744395  0.15180163    -0.53000
C212        C  0.10427473  0.32586537  0.15710328     0.11100
H213        H  0.15976955  0.40144052  0.16706949     0.15600
H214        H  0.14987846  0.29501137  0.14768554     0.01400
H215        H  0.11928151  0.37187107  0.06895475     0.16000
H216        H  0.06911829  0.36630622  0.16177890     0.15700
C217        C  0.38570443  0.11647838  0.12470756     0.87500
C218        C  0.35452652  0.11599589  0.14891133    -0.52700
C219        C  0.34194509  0.14680617  0.15660152     0.10500
C220        C  0.36222618  0.17547221  0.13853297     0.21400
C221        C  0.37635653  0.13618912  0.08978508    -0.53400
C222        C  0.36404825  0.16773846  0.09645769     0.10600
C223        C  0.41008073  0.13892612  0.14479991    -0.53000
C224        C  0.39841856  0.17001793  0.15181275     0.11100
H225        H  0.34450648  0.09334919  0.16094505     0.15600
H226        H  0.35213454  0.20040991  0.14546213     0.01400
H227        H  0.38182368  0.12686218  0.06248002     0.16000
H228        H  0.43429614  0.13007582  0.15373205     0.15700
C229        C  0.38806589  0.11657246  0.37685147     0.87500
C230        C  0.37895454  0.13590228  0.41197206    -0.52700
C231        C  0.36617487  0.16727218  0.40569591     0.10500
C232        C  0.36360667  0.17524574  0.36374129     0.21400
C233        C  0.35660309  0.11571565  0.35316492    -0.53400
C234        C  0.34343143  0.14633938  0.34587612     0.10600
C235        C  0.41193880  0.13945252  0.35652979    -0.53000
C236        C  0.39974186  0.17044583  0.34992343     0.11100
H237        H  0.38496941  0.12649599  0.43910170     0.15600
H238        H  0.35305888  0.20006300  0.35715413     0.01400
H239        H  0.34683201  0.09296437  0.34113374     0.16000
H240        H  0.43621908  0.13104657  0.34724931     0.15700
O241        O  0.45688230  0.24246670  0.28693089    -0.73400
O242        O  0.00061622  0.29682978  0.20836990    -0.73400
O243        O  0.45662688  0.24165395  0.21338001    -0.73500
O244        O  0.99656266  0.30360230  0.28180976    -0.73500
O245        O  0.03216960  0.26167358  0.29047843    -0.73400
O246        O  0.49812555  0.20465045  0.21355199    -0.73400
O247        O  0.03903496  0.25749084  0.21749690    -0.73400
O248        O  0.49859542  0.20571571  0.28766504    -0.73500
Ni249      Ni  0.47809714  0.26838866  0.24963309     1.25400
Ni250      Ni  0.01133799  0.23572904  0.25334308     1.25400
C251        C  0.47008791  0.21562551  0.29900822     0.88800
C252        C  0.02904403  0.28414018  0.20149339     0.88700
C253        C  0.46957918  0.21439907  0.20217540     0.88800
C254        C  0.02272119  0.29139322  0.29708551     0.88900
N255        N  0.25396432  0.15166382  0.19447026    -0.35600
N256        N  0.20350499  0.14334381  0.25193534    -0.56100
N257        N  0.25502875  0.15016595  0.30905336    -0.35600
N258        N  0.30456726  0.15729432  0.25160642    -0.56100
C259        C  0.22781933  0.13643359  0.17776471     0.28000
C260        C  0.28201946  0.14175432  0.17666212     0.28000
C261        C  0.22926921  0.13380083  0.32511464     0.28000
C262        C  0.28335541  0.14002629  0.32615129     0.28000
C263        C  0.18444668  0.15076833  0.22232571     0.36600
C264        C  0.18498451  0.14957029  0.28229571     0.36600
C265        C  0.32438628  0.16018467  0.22147539     0.36600
C266        C  0.32484854  0.15995902  0.28140069     0.36600
C267        C  0.23984328  0.11549185  0.15075567    -0.20800
C268        C  0.27366870  0.11976864  0.14892067    -0.20800
C269        C  0.24175746  0.11185336  0.35085277    -0.20800
C270        C  0.27556144  0.11665121  0.35271691    -0.20800
C271        C  0.15408972  0.16341146  0.23398242    -0.21900
C272        C  0.15442259  0.16263531  0.27197603    -0.21900
C273        C  0.35691389  0.16479012  0.23252661    -0.21900
C274        C  0.35720371  0.16470404  0.26982959    -0.21900
C275        C  0.19357475  0.14215207  0.18575967    -0.17200
C276        C  0.31498280  0.15167502  0.18506412    -0.17200
C277        C  0.31603700  0.15091744  0.31782176    -0.17200
C278        C  0.19491207  0.13980046  0.31821248    -0.17200
H279        H  0.22617337  0.09729485  0.13556461     0.15700
H280        H  0.29016939  0.10666593  0.13044110     0.15700
H281        H  0.22823888  0.09295131  0.36524217     0.15700
H282        H  0.29240302  0.10305684  0.37035563     0.15700
H283        H  0.13364992  0.17187270  0.21701039     0.13900
H284        H  0.13431448  0.17046272  0.28978653     0.13900
H285        H  0.37902978  0.16326737  0.21640692     0.13900
H286        H  0.37956819  0.16308797  0.28556136     0.13900
H287        H  0.25246174  0.16988755  0.21488655     0.27200
H288        H  0.25306201  0.16929518  0.28972748     0.27200
C289        C  0.41869291  0.19592389  0.32888664    -0.15400
C290        C  0.45202969  0.19461105  0.32521228    -0.30600
H291        H  0.40462816  0.21546111  0.31529142     0.13600
H292        H  0.46646159  0.17575531  0.33936549     0.14200
C293        C  0.45117196  0.19289073  0.17686231    -0.15400
C294        C  0.41792439  0.19507221  0.17279548    -0.30600
H295        H  0.46528858  0.17339306  0.16342439     0.13600
H296        H  0.40430711  0.21527439  0.18575896     0.14200
C297        C  0.08351028  0.30011557  0.17567506    -0.15400
C298        C  0.05023460  0.30258709  0.17602733    -0.30600
H299        H  0.09523313  0.27894867  0.18884964     0.13600
H300        H  0.03788950  0.32190012  0.16026681     0.14200
C301        C  0.04317997  0.31269697  0.32102176    -0.15400
C302        C  0.07614266  0.30713873  0.32643469    -0.30600
H303        H  0.03109131  0.33477001  0.33160118     0.13600
H304        H  0.08716526  0.28428992  0.31617759     0.14200
C305        C  0.19817516  0.07938655  0.42344077    -0.15400
C306        C  0.19522187  0.04613254  0.42703522    -0.30600
H307        H  0.22016220  0.09171717  0.43423957     0.13600
H308        H  0.17454034  0.03282151  0.41475957     0.14200
C309        C  0.19378575  0.04994972  0.07473034    -0.15400
C310        C  0.19474989  0.08326580  0.07826415    -0.30600
H311        H  0.17532034  0.03532872  0.08931449     0.13600
H312        H  0.21382037  0.09759630  0.06414183     0.14200
C313        C  0.30738401  0.41574502  0.07870349    -0.15400
C314        C  0.30837084  0.44912440  0.07502511    -0.30600
H315        H  0.28823759  0.40140297  0.06474150     0.13600
H316        H  0.32688746  0.46374927  0.08950301     0.14200
C317        C  0.30365639  0.41966848  0.42660660    -0.15400
C318        C  0.30635207  0.45287500  0.43084173    -0.30600
H319        H  0.28155197  0.40713470  0.43681445     0.13600
H320        H  0.32722538  0.46641738  0.41928922     0.14200
C321        C  0.10127671  0.41326021  0.12749419    -0.12200
C322        C  0.08183446  0.43639467  0.12770505    -0.13800
C323        C  0.08377860  0.09678544  0.13463801    -0.12200
C324        C  0.06046839  0.07770484  0.13367556    -0.13800
C325        C  0.40146697  0.08360194  0.11974800    -0.12200
C326        C  0.42085345  0.06053361  0.12130497    -0.13800
C327        C  0.44167734  0.42302403  0.13203415    -0.12200
C328        C  0.41885142  0.40339070  0.13338614    -0.13800
C329        C  0.08529364  0.09834810  0.37495088    -0.12200
C330        C  0.06178558  0.07951428  0.37657825    -0.13800
C331        C  0.08137976  0.44129713  0.37693823    -0.12200
C332        C  0.10023711  0.41780974  0.37764528    -0.13800
C333        C  0.41660558  0.40185192  0.37649033    -0.12200
C334        C  0.44030987  0.42049051  0.37661671    -0.13800
C335        C  0.42319872  0.06073980  0.38049324    -0.12200
C336        C  0.40401951  0.08390053  0.38173756    -0.13800
O337        O  0.45733475  0.02823619  0.90857247    -0.73400
O338        O  0.03781447  0.47140319  0.90719497    -0.73400
O339        O  0.02457322  0.03978020  0.90402962    -0.73500
O340        O  0.47198340  0.46036796  0.90289692    -0.73500
O341        O  0.47491521  0.46240673  0.84167260    -0.73400
O342        O  0.02450893  0.03854026  0.84270061    -0.73400
O343        O  0.04080821  0.47259616  0.84597369    -0.73400
O344        O  0.45758125  0.02862043  0.84724269    -0.73500
Ni345      Ni  0.49565310  0.99997162  0.91060831     1.25400
Ni346      Ni  0.00264262  0.50212379  0.84221329     1.25400
C347        C  0.44502498  0.03796809  0.87805475     0.88800
C348        C  0.05161695  0.46227030  0.87725770     0.88700
C349        C  0.03409699  0.05154552  0.87289402     0.88800
C350        C  0.46406947  0.44892239  0.87106981     0.88900
O351        O  0.45862085  0.02702248  0.59477838    -0.73400
O352        O  0.03676071  0.47257169  0.59290669    -0.73400
O353        O  0.46948688  0.46039911  0.59669126    -0.73500
O354        O  0.02577563  0.04034451  0.59468388    -0.73500
O355        O  0.02867267  0.04160885  0.65592547    -0.73400
O356        O  0.47018228  0.45994753  0.65804427    -0.73400
O357        O  0.03747118  0.47056940  0.65419898    -0.73400
O358        O  0.46116671  0.02805454  0.65605115    -0.73500
Ni359      Ni  0.49714456  0.99933163  0.59120791     1.25400
Ni360      Ni  0.99903701  0.49949526  0.65819467     1.25400
C361        C  0.44731725  0.03681776  0.62571845     0.88800
C362        C  0.04945915  0.46195651  0.62284567     0.88700
C363        C  0.46069799  0.44752248  0.62752711     0.88800
C364        C  0.03658443  0.05349894  0.62460246     0.88900
N365        N  0.15140826  0.24553145  0.94439778    -0.35600
N366        N  0.15879066  0.19805513  0.49925674    -0.56100
N367        N  0.15259495  0.24722583  0.55639677    -0.35600
N368        N  0.14114844  0.29765580  0.49871518    -0.56100
C369        C  0.14066820  0.21782622  0.92635625     0.28000
C370        C  0.13631370  0.27207842  0.92830586     0.28000
C371        C  0.14365468  0.21854292  0.57360674     0.28000
C372        C  0.13595428  0.27240806  0.57296169     0.28000
C373        C  0.15624267  0.17427637  0.97105393     0.36600
C374        C  0.16816364  0.18025040  0.52911568     0.36600
C375        C  0.15139028  0.31560280  0.97271022     0.36600
C376        C  0.14854267  0.31646294  0.52860077     0.36600
C377        C  0.11832303  0.22680384  0.89926663    -0.20800
C378        C  0.11453104  0.26058900  0.90185203    -0.20800
C379        C  0.12097601  0.22555335  0.60113586    -0.20800
C380        C  0.11528474  0.25923225  0.59963982    -0.20800
C381        C  0.15755018  0.14141139  0.98215306    -0.21900
C382        C  0.18470556  0.15194430  0.51808778    -0.20700
C383        C  0.16400961  0.34603280  0.98418645    -0.21900
C384        C  0.16117626  0.34690951  0.51730376    -0.21900
C385        C  0.14925222  0.18446372  0.93451982    -0.17200
C386        C  0.14272254  0.30628515  0.93610859    -0.17200
C387        C  0.14065507  0.30678916  0.56525601    -0.17200
C388        C  0.15605434  0.18654647  0.56486499    -0.17200
H389        H  0.10426776  0.21065045  0.88124680     0.15700
H390        H  0.09573055  0.27460600  0.88807521     0.15700
H391        H  0.10871672  0.20835349  0.61956030     0.15700
H392        H  0.09654016  0.27205603  0.61493008     0.15700
H393        H  0.15387861  0.11947273  0.96595172     0.13900
H394        H  0.19512659  0.13289897  0.53500478     0.13900
H395        H  0.17222508  0.36648508  0.96708330     0.13900
H396        H  0.16985867  0.36708886  0.53451933     0.13900
H397        H  0.16983542  0.24651066  0.96461273     0.27200
H398        H  0.17108909  0.24989293  0.53644510     0.27200
C399        C  0.38525021  0.38634748  0.87210632     0.87500
C400        C  0.38694501  0.35541393  0.89651562    -0.52700
C401        C  0.35655179  0.34237835  0.90523929     0.10500
C402        C  0.32708753  0.36172834  0.88786000     0.21400
C403        C  0.36494725  0.37637584  0.83786921    -0.53400
C404        C  0.33379506  0.36345055  0.84553330     0.10600
C405        C  0.36277241  0.41040062  0.89268800    -0.53000
C406        C  0.33214845  0.39796400  0.90094160     0.11100
H407        H  0.41005086  0.34601009  0.90807165     0.15600
H408        H  0.30258973  0.35103677  0.89567055     0.01400
H409        H  0.37360029  0.38180872  0.81027881     0.16000
H410        H  0.37131830  0.43484624  0.90123789     0.15700
C411        C  0.38180979  0.38557405  0.62381747     0.87500
C412        C  0.36244975  0.37693920  0.65908806    -0.52700
C413        C  0.33080899  0.36480257  0.65302382     0.10500
C414        C  0.32235849  0.36276089  0.61116192     0.21400
C415        C  0.38164079  0.35410681  0.60027296    -0.53400
C416        C  0.35055612  0.34170128  0.59342557     0.10600
C417        C  0.35959954  0.41000293  0.60346432    -0.53000
C418        C  0.32818528  0.39879042  0.59699981     0.11100
H419        H  0.37229065  0.38226915  0.68621378     0.15600
H420        H  0.29718664  0.35279793  0.60497069     0.01400
H421        H  0.40411902  0.34335397  0.58863408     0.16000
H422        H  0.36868548  0.43413139  0.59454705     0.15700
C423        C  0.11685136  0.11423302  0.61975681     0.87500
C424        C  0.13572074  0.12219154  0.65559936    -0.52700
C425        C  0.16775376  0.13380323  0.65052985     0.10500
C426        C  0.17701594  0.13600246  0.60882534     0.21400
C427        C  0.11820168  0.14585778  0.59643002    -0.53400
C428        C  0.14968513  0.15766358  0.59039926     0.10600
C429        C  0.13899612  0.08953895  0.59982035    -0.53000
C430        C  0.17075844  0.10018127  0.59434967     0.11100
H431        H  0.12522374  0.11658827  0.68234698     0.15600
H432        H  0.20240269  0.14559112  0.60307862     0.01400
H433        H  0.09621475  0.15711944  0.58426938     0.16000
H434        H  0.12961752  0.06567135  0.59044034     0.15700
C435        C  0.11375348  0.11362986  0.87464667     0.87500
C436        C  0.13651444  0.08970030  0.89502089    -0.52700
C437        C  0.16761752  0.10176440  0.90160556     0.10500
C438        C  0.17271167  0.13771007  0.88754340     0.21400
C439        C  0.11324911  0.14517561  0.89825658    -0.53400
C440        C  0.14407852  0.15799269  0.90556074     0.10600
C441        C  0.13315575  0.12249169  0.83940660    -0.53000
C442        C  0.16468195  0.13509856  0.84554493     0.11100
H443        H  0.12790402  0.06555950  0.90450415     0.15600
H444        H  0.19760532  0.14814462  0.89412774     0.01400
H445        H  0.09064137  0.15508469  0.91048309     0.16000
H446        H  0.12365836  0.11641281  0.81233224     0.15700
O447        O  0.24273999  0.03969410  0.53662818    -0.73400
O448        O  0.29707738  0.49647176  0.96369721    -0.73400
O449        O  0.24072649  0.04459135  0.96296360    -0.73500
O450        O  0.29275708  0.50084524  0.53927369    -0.73500
O451        O  0.25561265  0.45944625  0.53897957    -0.73400
O452        O  0.20375761  0.00301311  0.96372422    -0.73400
O453        O  0.26000205  0.45497894  0.96386885    -0.73400
O454        O  0.20554808  0.99832266  0.53611030    -0.73500
Ni455      Ni  0.26967628  0.01819277  0.50059713     1.25400
Ni456      Ni  0.22960543  0.48084411  0.50191528     1.25400
C457        C  0.21515922  0.02698718  0.54733235     0.88800
C458        C  0.28713903  0.46802735  0.95225960     0.88700
C459        C  0.21337129  0.03152200  0.95207344     0.88800
C460        C  0.28306192  0.47208564  0.55019095     0.88900
N461        N  0.35038623  0.25516994  0.94340608    -0.35600
N462        N  0.34428703  0.30188393  0.50207347    -0.56100
N463        N  0.34970037  0.25226631  0.55959986    -0.35600
N464        N  0.35977657  0.20182308  0.50264737    -0.56100
C465        C  0.36119558  0.28294117  0.92572345     0.28000
C466        C  0.36497600  0.22878212  0.92655747     0.28000
C467        C  0.35846097  0.28105274  0.57658169     0.28000
C468        C  0.36624459  0.22719997  0.57646409     0.28000
C469        C  0.34644390  0.32609921  0.97110043     0.36600
C470        C  0.33363196  0.31895066  0.53189296     0.36600
C471        C  0.34897602  0.18510270  0.97003031     0.36600
C472        C  0.35285027  0.18301343  0.53270497     0.36600
C473        C  0.38317557  0.27420137  0.89814550    -0.20800
C474        C  0.38660106  0.24036695  0.90002827    -0.20800
C475        C  0.38113526  0.27426975  0.60422820    -0.20800
C476        C  0.38685593  0.24053650  0.60310804    -0.20800
C477        C  0.34546180  0.35891439  0.98243047    -0.21900
C478        C  0.31596168  0.34657793  0.52081815    -0.21900
C479        C  0.33549599  0.15487755  0.98091769    -0.21900
C480        C  0.33965627  0.15272262  0.52165556    -0.21900
C481        C  0.35259172  0.31607807  0.93435802    -0.17200
C482        C  0.35800467  0.19468222  0.93369108    -0.17200
C483        C  0.36120489  0.19280256  0.56923499    -0.17200
C484        C  0.34540648  0.31278536  0.56777851    -0.17200
H485        H  0.39710694  0.29045999  0.88011797     0.15700
H486        H  0.40491642  0.22627501  0.88562643     0.15700
H487        H  0.39316253  0.29160296  0.62267395     0.15700
H488        H  0.40522770  0.22765170  0.61896410     0.15700
H489        H  0.34853985  0.38095312  0.96610210     0.13900
H490        H  0.30407850  0.36475228  0.53776990     0.13900
H491        H  0.32677156  0.13489749  0.96344938     0.13900
H492        H  0.33099731  0.13262495  0.53899951     0.13900
H493        H  0.33203948  0.25412141  0.96373029     0.27200
H494        H  0.33113057  0.24951530  0.53971362     0.27200
N495        N  0.24542376  0.34894988  0.69253210    -0.35600
N496        N  0.19604579  0.34301156  0.75001290    -0.56100
N497        N  0.24674891  0.34795670  0.80732274    -0.35600
N498        N  0.29707722  0.35567214  0.74992384    -0.56100
C499        C  0.21726282  0.35949789  0.67543619     0.28000
C500        C  0.27133279  0.36508797  0.67657989     0.28000
C501        C  0.21870715  0.35776114  0.82525598     0.28000
C502        C  0.27299618  0.36274624  0.82437648     0.28000
C503        C  0.17579520  0.33995023  0.72022267     0.36600
C504        C  0.17631310  0.33977173  0.78016538     0.36600
C505        C  0.31537818  0.34891201  0.71952316     0.36600
C506        C  0.31615381  0.34822257  0.77953891     0.36600
C507        C  0.22529753  0.38287645  0.64898318    -0.20800
C508        C  0.25914723  0.38727509  0.65091145    -0.20800
C509        C  0.22712777  0.37916629  0.85348726    -0.20800
C510        C  0.26100101  0.38322367  0.85185304    -0.20800
C511        C  0.14355281  0.33459709  0.73180228    -0.21900
C512        C  0.14386997  0.33455992  0.76913362    -0.21900
C513        C  0.34579045  0.33549336  0.72985581    -0.21900
C514        C  0.34628055  0.33506306  0.76786002    -0.21900
C515        C  0.18453891  0.34894476  0.68376728    -0.17200
C516        C  0.30552754  0.35864556  0.68352557    -0.17200
C517        C  0.30726050  0.35707121  0.81613947    -0.17200
C518        C  0.18569350  0.34816067  0.81663719    -0.17200
H519        H  0.20857690  0.39676145  0.63147401     0.15700
H520        H  0.27289190  0.40612643  0.63670022     0.15700
H521        H  0.21061099  0.39203282  0.87216929     0.15700
H522        H  0.27468191  0.40102387  0.86753737     0.15700
H523        H  0.12118569  0.33553607  0.71601761     0.13900
H524        H  0.12176447  0.33545284  0.78533047     0.13900
H525        H  0.36572592  0.32726600  0.71202424     0.13900
H526        H  0.36666000  0.32645141  0.78483125     0.13900
H527        H  0.24717243  0.32975309  0.71177029     0.27200
H528        H  0.24813095  0.33008680  0.78656711     0.27200
C529        C  0.11449024  0.38280281  0.87678832     0.87500
C530        C  0.12425447  0.36363085  0.91198772    -0.52700
C531        C  0.13711535  0.33221056  0.90575537     0.10500
C532        C  0.13904248  0.32408211  0.86369317     0.21400
C533        C  0.14565582  0.38356039  0.85252069    -0.53400
C534        C  0.15874102  0.35289191  0.84516316     0.10600
C535        C  0.09052073  0.35965878  0.85703520    -0.53000
C536        C  0.10275427  0.32871197  0.85029641     0.11100
H537        H  0.11856712  0.37314442  0.93915452     0.15600
H538        H  0.14962137  0.29929176  0.85702284     0.01400
H539        H  0.15530902  0.40624380  0.84020870     0.16000
H540        H  0.06617215  0.36801255  0.84796856     0.15700
C541        C  0.11238921  0.38287097  0.62446770     0.87500
C542        C  0.14385323  0.38398976  0.64822496    -0.52700
C543        C  0.15725390  0.35345292  0.65557418     0.10500
C544        C  0.13746699  0.32441300  0.63755118     0.21400
C545        C  0.12175731  0.36363601  0.58933088    -0.53400
C546        C  0.13491591  0.33240902  0.59558902     0.10600
C547        C  0.08878284  0.35970537  0.64475101    -0.53000
C548        C  0.10128446  0.32881387  0.65130426     0.11100
H549        H  0.15341949  0.40681257  0.66028225     0.15600
H550        H  0.14828895  0.29972120  0.64416429     0.01400
H551        H  0.11566079  0.37298370  0.56220064     0.16000
H552        H  0.06444105  0.36788703  0.65406504     0.15700
C553        C  0.38576984  0.11626471  0.63003762     0.87500
C554        C  0.35394874  0.11709358  0.65313943    -0.52700
C555        C  0.34200898  0.14842431  0.65968028     0.10500
C556        C  0.36369150  0.17609995  0.64188210     0.21400
C557        C  0.37800919  0.13561884  0.59448456    -0.53400
C558        C  0.36633409  0.16750247  0.60007074     0.10600
C559        C  0.41021962  0.13821741  0.65063565    -0.53000
C560        C  0.39933678  0.16978517  0.65666969     0.11100
H561        H  0.34269447  0.09488222  0.66483203     0.15600
H562        H  0.35401030  0.20136954  0.64789086     0.01400
H563        H  0.38379087  0.12558275  0.56757055     0.16000
H564        H  0.43404576  0.12879073  0.66004743     0.15700
C565        C  0.38340410  0.11782851  0.87374580     0.87500
C566        C  0.37505214  0.13737431  0.90902030    -0.52700
C567        C  0.36313213  0.16910611  0.90303793     0.10500
C568        C  0.36091180  0.17741665  0.86107115     0.21400
C569        C  0.35174944  0.11823480  0.85023512    -0.53400
C570        C  0.33958773  0.14942020  0.84316394     0.10600
C571        C  0.40789218  0.13988119  0.85324780    -0.53000
C572        C  0.39685244  0.17129992  0.84686941     0.11100
H573        H  0.38070688  0.12763422  0.93610134     0.15600
H574        H  0.35121769  0.20265116  0.85483941     0.01400
H575        H  0.34090278  0.09584265  0.83851596     0.16000
H576        H  0.43201036  0.13080345  0.84422860     0.15700
O577        O  0.45778153  0.24369197  0.79019459    -0.73400
O578        O  0.00300329  0.29373101  0.71394300    -0.73400
O579        O  0.45785722  0.24151200  0.71693420    -0.73500
O580        O  0.00360084  0.29395878  0.78810052    -0.73500
O581        O  0.04484061  0.25667640  0.78751984    -0.73400
O582        O  0.49974064  0.20496768  0.71797226    -0.73400
O583        O  0.04406619  0.25624043  0.71385820    -0.73400
O584        O  0.49956908  0.20705930  0.79174954    -0.73500
Ni585      Ni  0.47897419  0.26915989  0.75261649     1.25400
Ni586      Ni  0.02264257  0.23047909  0.75116548     1.25400
C587        C  0.47064694  0.21664561  0.80215052     0.88800
C588        C  0.03120574  0.28339317  0.70218210     0.88700
C589        C  0.47103149  0.21409781  0.70649448     0.88800
C590        C  0.03209440  0.28384677  0.79927886     0.88900
N591        N  0.25210239  0.15073936  0.69244885    -0.35600
N592        N  0.20045391  0.14111000  0.74866078    -0.56100
N593        N  0.25047695  0.15149176  0.80701147    -0.35600
N594        N  0.30085558  0.15662096  0.75065953    -0.56100
C595        C  0.22711442  0.13431839  0.67518742     0.28000
C596        C  0.28105203  0.14183079  0.67579411     0.28000
C597        C  0.22487198  0.13509929  0.82319922     0.28000
C598        C  0.27889615  0.14245663  0.82473420     0.28000
C599        C  0.18212057  0.14775615  0.71817178     0.36600
C600        C  0.18122415  0.14817480  0.77835233     0.36600
C601        C  0.31877937  0.16636461  0.72100267     0.36600
C602        C  0.31794521  0.16665069  0.78078849     0.36600
C603        C  0.24068205  0.11374529  0.64868981    -0.20800
C604        C  0.27441216  0.11937570  0.64793068    -0.20800
C605        C  0.23755416  0.11434841  0.85007680    -0.20800
C606        C  0.27131538  0.11983179  0.85212582    -0.20800
C607        C  0.15146529  0.16055402  0.72860106    -0.21900
C608        C  0.15088012  0.16076850  0.76662148    -0.21900
C609        C  0.34656713  0.18365673  0.73241820    -0.21900
C610        C  0.34600330  0.18385733  0.77007733    -0.21900
C611        C  0.19257328  0.13932661  0.68183565    -0.17200
C612        C  0.31292096  0.15431903  0.68508475    -0.17200
C613        C  0.31110365  0.15492104  0.81664355    -0.17200
C614        C  0.19054437  0.14023225  0.81517841    -0.17200
H615        H  0.22794932  0.09539572  0.63268552     0.15700
H616        H  0.29183663  0.10734345  0.62960588     0.15700
H617        H  0.22431373  0.09576914  0.86524278     0.15700
H618        H  0.28819487  0.10751690  0.87083510     0.15700
H619        H  0.13158123  0.16899384  0.71084338     0.13900
H620        H  0.13043852  0.16931941  0.78353713     0.13900
H621        H  0.36536304  0.19484005  0.71570227     0.13900
H622        H  0.36422641  0.19526093  0.78727619     0.13900
H623        H  0.24922321  0.16921166  0.71237949     0.27200
H624        H  0.24826066  0.17000508  0.78702100     0.27200
C625        C  0.41778440  0.19685448  0.82825597    -0.15400
C626        C  0.45120560  0.19461993  0.82612015    -0.30600
H627        H  0.40550548  0.21857030  0.81684410     0.13600
H628        H  0.46447499  0.17428998  0.83910831     0.14200
C629        C  0.45254306  0.19149940  0.68237838    -0.15400
C630        C  0.41973844  0.19522802  0.67601521    -0.30600
H631        H  0.46607959  0.17014412  0.67207332     0.13600
H632        H  0.40738835  0.21776745  0.68520409     0.14200
C633        C  0.08253461  0.30309173  0.67219520    -0.15400
C634        C  0.04921753  0.30428358  0.67588792    -0.30600
H635        H  0.09669008  0.28358847  0.68574258     0.13600
H636        H  0.03471025  0.32309635  0.66177085     0.14200
C637        C  0.05044723  0.30490970  0.82516744    -0.15400
C638        C  0.08373297  0.30322537  0.82922430    -0.30600
H639        H  0.03610724  0.32398978  0.83903557     0.13600
H640        H  0.09768207  0.28340115  0.81598309     0.14200
C641        C  0.19293090  0.08296160  0.92295060    -0.15400
C642        C  0.19154452  0.04966210  0.92679613    -0.30600
H643        H  0.21269849  0.09704284  0.93616658     0.13600
H644        H  0.17235716  0.03522969  0.91315358     0.14200
C645        C  0.19285117  0.04613856  0.57122848    -0.15400
C646        C  0.19637225  0.07922915  0.57591571    -0.30600
H647        H  0.17162568  0.03291770  0.58244665     0.13600
H648        H  0.21876947  0.09139385  0.56592262     0.14200
C649        C  0.30249598  0.41947350  0.57806652    -0.15400
C650        C  0.30526624  0.45277516  0.57422208    -0.30600
H651        H  0.28054667  0.40702920  0.56734721     0.13600
H652        H  0.32601619  0.46618003  0.58621177     0.14200
C653        C  0.30740326  0.41663389  0.92315432    -0.15400
C654        C  0.30832859  0.44998076  0.92629943    -0.30600
H655        H  0.28843005  0.40242265  0.93757609     0.13600
H656        H  0.32673848  0.46455054  0.91155674     0.14200
C657        C  0.09595543  0.41540412  0.61958387    -0.12200
C658        C  0.07664795  0.43853103  0.62075495    -0.13800
C659        C  0.08335054  0.09967252  0.62383755    -0.12200
C660        C  0.05974913  0.08092007  0.62360475    -0.13800
C661        C  0.40060600  0.08299022  0.62547263    -0.12200
C662        C  0.41968860  0.05970090  0.62579414    -0.13800
C663        C  0.43809160  0.41975387  0.62837914    -0.12200
C664        C  0.41487662  0.40061951  0.62883488    -0.13800
C665        C  0.08087439  0.09779376  0.87000988    -0.12200
C666        C  0.05751203  0.07875495  0.87129234    -0.13800
C667        C  0.07880142  0.43869228  0.87936706    -0.12200
C668        C  0.09813057  0.41553804  0.88122575    -0.13800
C669        C  0.41780056  0.40239804  0.86614915    -0.12200
C670        C  0.44100814  0.42157037  0.86779087    -0.13800
C671        C  0.41768539  0.06133018  0.87878066    -0.12200
C672        C  0.39860708  0.08469263  0.87887758    -0.13800
O673        O  0.46483222  0.52658384  0.40752676    -0.73400
O674        O  0.04110708  0.97202140  0.40512150    -0.73400
O675        O  0.03040340  0.54055433  0.40498375    -0.73500
O676        O  0.47282071  0.96056244  0.40525787    -0.73500
O677        O  0.47371217  0.96243210  0.34396774    -0.73400
O678        O  0.02765893  0.53908958  0.34373804    -0.73400
O679        O  0.04071899  0.97456461  0.34383194    -0.73400
O680        O  0.46126404  0.52626936  0.34631945    -0.73500
Ni681      Ni  0.50344125  0.49884198  0.40707066     1.25400
Ni682      Ni  0.00101368  0.00199394  0.34349187     1.25400
C683        C  0.45022597  0.53536496  0.37795095     0.88800
C684        C  0.05384706  0.96458246  0.37413169     0.88700
C685        C  0.03833528  0.55236481  0.37329573     0.88800
C686        C  0.46374806  0.94905214  0.37381894     0.88900
O687        O  0.46623688  0.52948766  0.09699000    -0.73400
O688        O  0.03835672  0.97203148  0.09785353    -0.73400
O689        O  0.47202291  0.96165981  0.09305177    -0.73500
O690        O  0.03455570  0.53686890  0.09720752    -0.73500
O691        O  0.03402632  0.53753845  0.15855233    -0.73400
O692        O  0.46977739  0.96056471  0.15431152    -0.73400
O693        O  0.03705050  0.97080396  0.15915222    -0.73400
O694        O  0.46548156  0.53071908  0.15831205    -0.73500
Ni695      Ni  0.50374517  0.50031914  0.09607462     1.25400
Ni696      Ni  0.99812677  0.99944961  0.16105733     1.25400
C697        C  0.45395907  0.54025674  0.12705519     0.88800
C698        C  0.05035632  0.96216788  0.12842100     0.88700
C699        C  0.46149345  0.94854679  0.12315058     0.88800
C700        C  0.04368941  0.54968115  0.12790668     0.88900
N701        N  0.14804684  0.74795352  0.44147985    -0.35600
N702        N  0.15824046  0.69984945  0.00136773    -0.56100
N703        N  0.15227473  0.74903920  0.05873890    -0.35600
N704        N  0.14162977  0.79981252  0.00135488    -0.56100
C705        C  0.13977756  0.71943005  0.42359858     0.28000
C706        C  0.13313892  0.77351458  0.42326948     0.28000
C707        C  0.14339122  0.72018394  0.07565912     0.28000
C708        C  0.13514658  0.77401172  0.07506712     0.28000
C709        C  0.15645638  0.67719143  0.46998170     0.36600
C710        C  0.16868926  0.68256735  0.03117991     0.36600
C711        C  0.14640491  0.81788949  0.46714780     0.36600
C712        C  0.14812896  0.81865001  0.03147757     0.36600
C713        C  0.11918029  0.72690214  0.39426039    -0.20800
C714        C  0.11396429  0.76057481  0.39514024    -0.20800
C715        C  0.12009678  0.72685492  0.10267441    -0.20800
C716        C  0.11409551  0.76053682  0.10122496    -0.20800
C717        C  0.15816852  0.64445723  0.48150277    -0.21900
C718        C  0.18660494  0.65516364  0.01998617    -0.20700
C719        C  0.15983168  0.84813943  0.47807761    -0.21900
C720        C  0.16019780  0.84945258  0.02049488    -0.21900
C721        C  0.14977399  0.68670464  0.43308580    -0.17200
C722        C  0.13800696  0.80805718  0.43062148    -0.17200
C723        C  0.13995754  0.80849571  0.06795360    -0.17200
C724        C  0.15659278  0.68842842  0.06707386    -0.17200
H725        H  0.10770868  0.70988775  0.37503080     0.15700
H726        H  0.09687151  0.77363773  0.37775667     0.15700
H727        H  0.10773653  0.70943553  0.12075592     0.15700
H728        H  0.09520344  0.77329834  0.11645879     0.15700
H729        H  0.15495049  0.62230947  0.46553381     0.13900
H730        H  0.19846862  0.63697337  0.03686813     0.13900
H731        H  0.16886376  0.86803453  0.46068263     0.13900
H732        H  0.16825550  0.86977010  0.03787002     0.13900
H733        H  0.16522119  0.75010184  0.46291335     0.27200
H734        H  0.17114807  0.75194525  0.03922923     0.27200
C735        C  0.38495627  0.88548286  0.37456222     0.87500
C736        C  0.38662860  0.85347364  0.39729278    -0.52700
C737        C  0.35628572  0.83968923  0.40489282     0.10500
C738        C  0.32675344  0.85971395  0.38804590     0.21400
C739        C  0.36515589  0.87684694  0.33954294    -0.53400
C740        C  0.33403745  0.86333844  0.34604297     0.10600
C741        C  0.36195431  0.90840504  0.39596279    -0.53000
C742        C  0.33118775  0.89556658  0.40269429     0.11100
H743        H  0.40967894  0.84399619  0.40890074     0.15600
H744        H  0.30213661  0.84866596  0.39475540     0.01400
H745        H  0.37404940  0.88359140  0.31240043     0.16000
H746        H  0.37011122  0.93257511  0.40583827     0.15700
C747        C  0.38242091  0.88539850  0.11967941     0.87500
C748        C  0.36419069  0.87681872  0.15582295    -0.52700
C749        C  0.33227692  0.86476723  0.15119561     0.10500
C750        C  0.32253908  0.86237699  0.10957866     0.21400
C751        C  0.38142354  0.85378881  0.09611811    -0.53400
C752        C  0.35010503  0.84125437  0.09044633     0.10600
C753        C  0.35942314  0.90964152  0.10024185    -0.53000
C754        C  0.32785126  0.89834414  0.09512718     0.11100
H755        H  0.37483056  0.88254094  0.18247450     0.15600
H756        H  0.29714258  0.85250089  0.10440650     0.01400
H757        H  0.40348720  0.84324406  0.08336117     0.16000
H758        H  0.36816854  0.93372470  0.09078995     0.15700
C759        C  0.12077152  0.61429062  0.12236170     0.87500
C760        C  0.13993947  0.62239976  0.15781631    -0.52700
C761        C  0.17133955  0.63510546  0.15221006     0.10500
C762        C  0.17993342  0.63819894  0.11034876     0.21400
C763        C  0.12051746  0.64635832  0.09955195    -0.53400
C764        C  0.15152994  0.65931058  0.09285080     0.10600
C765        C  0.14327552  0.59072472  0.10129673    -0.53000
C766        C  0.17454656  0.60240980  0.09525376     0.11100
H767        H  0.13021608  0.61620009  0.18478264     0.15600
H768        H  0.20507245  0.64846906  0.10457310     0.01400
H769        H  0.09790283  0.65691140  0.08805115     0.16000
H770        H  0.13449655  0.56671995  0.09161175     0.15700
C771        C  0.11747583  0.61472881  0.37325088     0.87500
C772        C  0.13988352  0.59120688  0.39462363    -0.52700
C773        C  0.17064400  0.60364897  0.40221147     0.10500
C774        C  0.17577284  0.63959425  0.38805358     0.21400
C775        C  0.11588469  0.64634101  0.39646473    -0.53400
C776        C  0.14625942  0.65961108  0.40469969     0.10600
C777        C  0.13784157  0.62362246  0.33865333    -0.53000
C778        C  0.16907638  0.63667576  0.34582057     0.11100
H779        H  0.13127881  0.56702844  0.40400640     0.15600
H780        H  0.20033224  0.65037667  0.39545034     0.01400
H781        H  0.09278760  0.65614118  0.40766412     0.16000
H782        H  0.12914464  0.61742185  0.31128535     0.15700
O783        O  0.24762712  0.54210635  0.03770246    -0.73400
O784        O  0.29382049  0.99385830  0.46418234    -0.73400
O785        O  0.24319243  0.54662129  0.46502642    -0.73500
O786        O  0.29175297  0.99926177  0.03612313    -0.73500
O787        O  0.25486190  0.95762819  0.03666542    -0.73400
O788        O  0.20638966  0.50489988  0.46449911    -0.73400
O789        O  0.25686903  0.95225465  0.46367552    -0.73400
O790        O  0.21041964  0.50074641  0.03796493    -0.73500
Ni791      Ni  0.27375052  0.52059355  0.00091630     1.25400
Ni792      Ni  0.22790286  0.97889684  0.00036874     1.25400
C793        C  0.22018362  0.52946564  0.04889444     0.88800
C794        C  0.28424225  0.96527910  0.45274098     0.88700
C795        C  0.21610823  0.53352715  0.45333566     0.88800
C796        C  0.28226911  0.97060908  0.04752656     0.88900
N797        N  0.35262727  0.75185688  0.44332912    -0.35600
N798        N  0.34014034  0.80062049  0.99871877    -0.56100
N799        N  0.34634425  0.75175799  0.05583726    -0.35600
N800        N  0.35707009  0.70094904  0.99726677    -0.56100
C801        C  0.36288282  0.77989920  0.42568761     0.28000
C802        C  0.36852863  0.72576808  0.42734654     0.28000
C803        C  0.35661706  0.78036880  0.07231722     0.28000
C804        C  0.36408894  0.72650197  0.07069198     0.28000
C805        C  0.34439659  0.82245874  0.47010171     0.36600
C806        C  0.33148221  0.81878044  0.02867772     0.36600
C807        C  0.35292949  0.68220022  0.47111780     0.36600
C808        C  0.35069201  0.68201653  0.02727035     0.36600
C809        C  0.38599537  0.77158585  0.39901086    -0.20800
C810        C  0.39043759  0.73773714  0.40131688    -0.20800
C811        C  0.38144879  0.77320287  0.09745456    -0.20800
C812        C  0.38696444  0.73946731  0.09515721    -0.20800
C813        C  0.34176719  0.85516782  0.48133288    -0.21900
C814        C  0.31534248  0.84729745  0.01766073    -0.21900
C815        C  0.33933711  0.65205757  0.48217979    -0.21900
C816        C  0.33928955  0.65098417  0.01638969    -0.21900
C817        C  0.35244084  0.81280242  0.43365293    -0.17200
C818        C  0.36230093  0.69154998  0.43478196    -0.17200
C819        C  0.35867101  0.69216604  0.06358494    -0.17200
C820        C  0.34392572  0.81245958  0.06438104    -0.17200
H821        H  0.39968252  0.78816204  0.38110302     0.15700
H822        H  0.40909010  0.72367155  0.38714140     0.15700
H823        H  0.39551213  0.79037729  0.11424568     0.15700
H824        H  0.40736438  0.72644464  0.10755015     0.15700
H825        H  0.34548302  0.87726828  0.46553400     0.13900
H826        H  0.30577630  0.86678364  0.03455445     0.13900
H827        H  0.33057788  0.63200128  0.46484674     0.13900
H828        H  0.33190746  0.63047650  0.03387467     0.13900
H829        H  0.33373153  0.75027730  0.46295068     0.27200
H830        H  0.32649887  0.74919226  0.03747174     0.27200
N831        N  0.24790550  0.84905362  0.19247773    -0.35600
N832        N  0.19842354  0.84344246  0.25019674    -0.56100
N833        N  0.24781695  0.84769386  0.30735056    -0.35600
N834        N  0.29875765  0.85736190  0.24937938    -0.56100
C835        C  0.21921785  0.85922788  0.17624533     0.28000
C836        C  0.27321716  0.86583148  0.17628325     0.28000
C837        C  0.21930855  0.85729857  0.32462884     0.28000
C838        C  0.27361833  0.86335364  0.32406151     0.28000
C839        C  0.18089893  0.83399651  0.22021325     0.36600
C840        C  0.18052698  0.83385361  0.27992484     0.36600
C841        C  0.31759591  0.85111166  0.21911494     0.36600
C842        C  0.31752036  0.84996570  0.27928220     0.36600
C843        C  0.22633501  0.88311351  0.14997867    -0.20800
C844        C  0.26021636  0.88805476  0.15114469    -0.20800
C845        C  0.22708069  0.87944633  0.35243546    -0.20800
C846        C  0.26104039  0.88402282  0.35109553    -0.20800
C847        C  0.15267669  0.81716354  0.23111491    -0.21900
C848        C  0.15225088  0.81718484  0.26875059    -0.21900
C849        C  0.34812278  0.83829306  0.22986746    -0.21900
C850        C  0.34805786  0.83752886  0.26789055    -0.21900
C851        C  0.18725102  0.84647213  0.18458614    -0.17200
C852        C  0.30753997  0.85981153  0.18274169    -0.17200
C853        C  0.30798237  0.85799270  0.31600832    -0.17200
C854        C  0.18684693  0.84580658  0.31568425    -0.17200
H855        H  0.20913619  0.89655564  0.13262999     0.15700
H856        H  0.27346783  0.90715772  0.13673351     0.15700
H857        H  0.21025443  0.89204565  0.37098534     0.15700
H858        H  0.27446330  0.90218507  0.36662455     0.15700
H859        H  0.13413489  0.80632382  0.21404059     0.13900
H860        H  0.13306571  0.80650355  0.28555036     0.13900
H861        H  0.36835783  0.83029158  0.21234154     0.13900
H862        H  0.36831015  0.82897160  0.28507634     0.13900
H863        H  0.25036594  0.82958349  0.21128319     0.27200
H864        H  0.24990817  0.82939717  0.28712734     0.27200
C865        C  0.11543375  0.88640377  0.37081402     0.87500
C866        C  0.12209300  0.86607456  0.40604492    -0.52700
C867        C  0.13252372  0.83374913  0.39994377     0.10500
C868        C  0.13439038  0.82577899  0.35785292     0.21400
C869        C  0.14723673  0.88440111  0.34785446    -0.53400
C870        C  0.15771394  0.85267058  0.34085493     0.10600
C871        C  0.08994049  0.86619101  0.34986176    -0.53000
C872        C  0.09871478  0.83417031  0.34349420     0.11100
H873        H  0.11674926  0.87606609  0.43307410     0.15600
H874        H  0.14301685  0.80034866  0.35101760     0.01400
H875        H  0.15961457  0.90623237  0.33668609     0.16000
H876        H  0.06666331  0.87706940  0.34065802     0.15700
C877        C  0.11412280  0.88403239  0.12975424     0.87500
C878        C  0.14605198  0.88350282  0.15265747    -0.52700
C879        C  0.15852781  0.85229656  0.15873801     0.10500
C880        C  0.13728546  0.82438202  0.14065414     0.21400
C881        C  0.12210267  0.86521141  0.09387141    -0.53400
C882        C  0.13443517  0.83347478  0.09899529     0.10600
C883        C  0.09028957  0.86136852  0.15018618    -0.53000
C884        C  0.10151912  0.82979979  0.15549907     0.11100
H885        H  0.15679617  0.90574911  0.16482515     0.15600
H886        H  0.14738604  0.79920479  0.14629249     0.01400
H887        H  0.11597262  0.87541125  0.06713193     0.16000
H888        H  0.06648486  0.87034865  0.16028128     0.15700
C889        C  0.39037796  0.61987809  0.12565230     0.87500
C890        C  0.35882139  0.61673290  0.14885455    -0.52700
C891        C  0.34293746  0.64619870  0.15489127     0.10500
C892        C  0.35983115  0.67624317  0.13576608     0.21400
C893        C  0.37991394  0.63697479  0.08951823    -0.53400
C894        C  0.36419797  0.66719248  0.09438006     0.10600
C895        C  0.41137588  0.64595844  0.14540459    -0.53000
C896        C  0.39554583  0.67568705  0.15053347     0.11100
H897        H  0.35126363  0.59368146  0.16209334     0.15600
H898        H  0.34674546  0.70015696  0.14086677     0.01400
H899        H  0.38734103  0.62750933  0.06282617     0.16000
H900        H  0.43614926  0.64058464  0.15580179     0.15700
C901        C  0.38753095  0.61313689  0.37708774     0.87500
C902        C  0.37911893  0.63358503  0.41165665    -0.52700
C903        C  0.36830687  0.66561965  0.40464432     0.10500
C904        C  0.36748856  0.67326474  0.36234842     0.21400
C905        C  0.35645014  0.61408799  0.35274417    -0.53400
C906        C  0.34537669  0.64544852  0.34474358     0.10600
C907        C  0.41322873  0.63394105  0.35716849    -0.53000
C908        C  0.40375284  0.66540634  0.34955864     0.11100
H909        H  0.38393327  0.62407690  0.43901833     0.15600
H910        H  0.35869514  0.69856037  0.35509193     0.01400
H911        H  0.34510934  0.59184081  0.34125491     0.16000
H912        H  0.43772490  0.62439884  0.34979326     0.15700
O913        O  0.44167929  0.76347145  0.28294021    -0.73400
O914        O  0.99851629  0.80228483  0.21018151    -0.73400
O915        O  0.44721157  0.75636890  0.21005386    -0.73500
O916        O  0.99445067  0.80802416  0.28375836    -0.73500
O917        O  0.02989797  0.76579110  0.29136047    -0.73400
O918        O  0.48545369  0.71629400  0.21578523    -0.73400
O919        O  0.03660032  0.76245617  0.21832323    -0.73400
O920        O  0.47674901  0.72074105  0.28878173    -0.73500
Ni921      Ni  0.46914912  0.78326147  0.24641460     1.25400
Ni922      Ni  0.00886104  0.74048795  0.25407521     1.25400
C923        C  0.44875619  0.73494713  0.29608621     0.88800
C924        C  0.02668944  0.78927741  0.20261450     0.88700
C925        C  0.45925704  0.72800093  0.20086237     0.88800
C926        C  0.02080958  0.79552007  0.29833218     0.88900
N927        N  0.25623471  0.64930032  0.19309472    -0.35600
N928        N  0.20514554  0.64295946  0.24967620    -0.56100
N929        N  0.25638011  0.65137669  0.30752893    -0.35600
N930        N  0.30665396  0.65543436  0.25057937    -0.56100
C931        C  0.23040719  0.63375293  0.17639868     0.28000
C932        C  0.28427887  0.63893511  0.17589172     0.28000
C933        C  0.22996589  0.63672088  0.32450440     0.28000
C934        C  0.28445284  0.64181966  0.32578165     0.28000
C935        C  0.18650565  0.64947781  0.21939245     0.36600
C936        C  0.18637546  0.65064670  0.27945403     0.36600
C937        C  0.32655587  0.65758366  0.22047874     0.36600
C938        C  0.32680232  0.65901669  0.28033909     0.36600
C939        C  0.24253217  0.61200678  0.15026506    -0.20800
C940        C  0.27635840  0.61617303  0.14875918    -0.20800
C941        C  0.24184801  0.61656304  0.35232606    -0.20800
C942        C  0.27576456  0.62066936  0.35418600    -0.20800
C943        C  0.15612004  0.66273782  0.22994341    -0.21900
C944        C  0.15605123  0.66352650  0.26793725    -0.21900
C945        C  0.35914373  0.66226641  0.23145782    -0.21900
C946        C  0.35922669  0.66366476  0.26880381    -0.21900
C947        C  0.19635423  0.64035212  0.18317274    -0.17200
C948        C  0.31683138  0.64944560  0.18409046    -0.17200
C949        C  0.31773185  0.65113219  0.31699294    -0.17200
C950        C  0.19560397  0.64234218  0.31615932    -0.17200
H951        H  0.22876715  0.59349409  0.13560736     0.15700
H952        H  0.29321437  0.60258455  0.13107997     0.15700
H953        H  0.22801455  0.59895372  0.36814573     0.15700
H954        H  0.29209014  0.60800707  0.37321561     0.15700
H955        H  0.13602022  0.67082500  0.21227215     0.13900
H956        H  0.13582236  0.67231018  0.28502478     0.13900
H957        H  0.38137149  0.66046548  0.21536283     0.13900
H958        H  0.38145015  0.66408783  0.28497879     0.13900
H959        H  0.25458689  0.66820274  0.21273646     0.27200
H960        H  0.25499902  0.66899768  0.28649750     0.27200
C961        C  0.42855165  0.68695157  0.33069057    -0.15400
C962        C  0.42303379  0.71760825  0.31793529    -0.30600
H963        H  0.45298819  0.67605565  0.32600890     0.13600
H964        H  0.39883515  0.72925098  0.32134611     0.14200
C965        C  0.44332603  0.70718975  0.17334810    -0.15400
C966        C  0.41030059  0.70355613  0.17154341    -0.30600
H967        H  0.45957381  0.69085620  0.15776151     0.13600
H968        H  0.39392493  0.72014231  0.18670428     0.14200
C969        C  0.08075025  0.80410044  0.17431434    -0.15400
C970        C  0.04754538  0.80736728  0.17639134    -0.30600
H971        H  0.09254071  0.78268891  0.18694494     0.13600
H972        H  0.03499795  0.82691042  0.16121373     0.14200
C973        C  0.04221901  0.81640265  0.32161787    -0.15400
C974        C  0.07535335  0.81044367  0.32516817    -0.30600
H975        H  0.03075168  0.83839212  0.33324286     0.13600
H976        H  0.08573221  0.78767534  0.31392627     0.14200
C977        C  0.19552812  0.58509526  0.42445233    -0.15400
C978        C  0.19467986  0.55171524  0.42765465    -0.30600
H979        H  0.21462233  0.59934871  0.43860856     0.13600
H980        H  0.17615752  0.53716774  0.41306317     0.14200
C981        C  0.19808689  0.54871321  0.07296249    -0.15400
C982        C  0.20043222  0.58208575  0.07622832    -0.30600
H983        H  0.17770400  0.53513784  0.08549385     0.13600
H984        H  0.22217691  0.59469292  0.06523071     0.14200
C985        C  0.30167150  0.91874440  0.07678499    -0.15400
C986        C  0.30460488  0.95187797  0.07183919    -0.30600
H987        H  0.27948806  0.90610187  0.06693884     0.13600
H988        H  0.32555640  0.96551027  0.08306508     0.14200
C989        C  0.30562740  0.91378676  0.42436834    -0.15400
C990        C  0.30611084  0.94717095  0.42749930    -0.30600
H991        H  0.28643916  0.89935142  0.43816016     0.13600
H992        H  0.32468976  0.96186071  0.41316255     0.14200
C993        C  0.09828205  0.91701623  0.12605299    -0.12200
C994        C  0.07840867  0.93967281  0.12750309    -0.13800
C995        C  0.08827657  0.59802627  0.12759664    -0.12200
C996        C  0.06607542  0.57769159  0.12821072    -0.13800
C997        C  0.40903338  0.58834765  0.12271823    -0.12200
C998        C  0.42790657  0.56493075  0.12501644    -0.13800
C999        C  0.43857260  0.92073869  0.12258020    -0.12200
C1000       C  0.41559467  0.90111006  0.12321645    -0.13800
C1001       C  0.08478606  0.59869981  0.36802484    -0.12200
C1002       C  0.06142233  0.57973749  0.37019454    -0.13800
C1003       C  0.08243053  0.94302423  0.37416034    -0.12200
C1004       C  0.10189360  0.92012366  0.37544627    -0.13800
C1005       C  0.41740594  0.90225611  0.36977249    -0.12200
C1006       C  0.44047880  0.92167243  0.37145507    -0.13800
C1007       C  0.42178323  0.55715968  0.38079215    -0.12200
C1008       C  0.40196488  0.57980728  0.38251952    -0.13800
O1009       O  0.46136298  0.52697109  0.90553827    -0.73400
O1010       O  0.03408059  0.97288543  0.90621556    -0.73400
O1011       O  0.02922194  0.53859245  0.90782137    -0.73500
O1012       O  0.46705384  0.96111282  0.90751954    -0.73500
O1013       O  0.46788481  0.96163849  0.84619736    -0.73400
O1014       O  0.03137597  0.53978566  0.84653777    -0.73400
O1015       O  0.03476761  0.97167706  0.84489440    -0.73400
O1016       O  0.46385063  0.52902934  0.84428875    -0.73500
Ni1017     Ni  0.49991551  0.49939745  0.90844435     1.25400
Ni1018     Ni  0.99610680  0.00038814  0.84149544     1.25400
C1019       C  0.44996805  0.53717373  0.87483653     0.88800
C1020       C  0.04691541  0.96285894  0.87610346     0.88700
C1021       C  0.03982657  0.55158701  0.87771931     0.88800
C1022       C  0.45811545  0.94879928  0.87641578     0.88900
O1023       O  0.45850608  0.52705935  0.59680482    -0.73400
O1024       O  0.03598699  0.97343857  0.59515929    -0.73400
O1025       O  0.46910157  0.96034065  0.59617463    -0.73500
O1026       O  0.02730458  0.53962830  0.59614961    -0.73500
O1027       O  0.02757140  0.53756367  0.65744292    -0.73400
O1028       O  0.47237181  0.96142018  0.65740502    -0.73400
O1029       O  0.03982581  0.97474353  0.65632671    -0.73400
O1030       O  0.45842712  0.52662017  0.65814321    -0.73500
Ni1031     Ni  0.49730585  0.49966510  0.59438941     1.25400
Ni1032     Ni  0.00097346  0.00319182  0.66078360     1.25400
C1033       C  0.44580458  0.53603960  0.62737885     0.88800
C1034       C  0.05034308  0.96458758  0.62486978     0.88700
C1035       C  0.46127615  0.94846560  0.62783170     0.88800
C1036       C  0.03684464  0.55111021  0.62741775     0.88900
N1037       N  0.15173634  0.74930717  0.94395712    -0.35600
N1038       N  0.15491344  0.69747949  0.49982552    -0.56100
N1039       N  0.14837917  0.74816508  0.55592070    -0.35600
N1040       N  0.13929263  0.79929369  0.49730411    -0.56100
C1041       C  0.14291763  0.72043945  0.92699350     0.28000
C1042       C  0.13506881  0.77445114  0.92727678     0.28000
C1043       C  0.13856376  0.72031236  0.57425808     0.28000
C1044       C  0.13240612  0.77431749  0.57160959     0.28000
C1045       C  0.16837463  0.68262595  0.97139641     0.36600
C1046       C  0.15599672  0.67736836  0.52992264     0.36600
C1047       C  0.14802421  0.81882727  0.97134583     0.36600
C1048       C  0.14672886  0.81800791  0.52723283     0.36600
C1049       C  0.12004871  0.72724302  0.89958602    -0.20800
C1050       C  0.11438329  0.76103528  0.90070537    -0.20800
C1051       C  0.11576186  0.72879442  0.60113809    -0.20800
C1052       C  0.11089801  0.76246794  0.59819086    -0.20800
C1053       C  0.18637682  0.65518062  0.98232519    -0.21900
C1054       C  0.15787091  0.64457479  0.51883720    -0.20700
C1055       C  0.16009366  0.84957470  0.98247789    -0.21900
C1056       C  0.15990923  0.84825774  0.51606050    -0.21900
C1057       C  0.15602729  0.68858570  0.93562187    -0.17200
C1058       C  0.13975842  0.80897911  0.93481816    -0.17200
C1059       C  0.13848532  0.80851178  0.56380859    -0.17200
C1060       C  0.14856792  0.68728044  0.56647568    -0.17200
H1061       H  0.10781320  0.70982317  0.88139189     0.15700
H1062       H  0.09575221  0.77380053  0.88513353     0.15700
H1063       H  0.10232005  0.71236518  0.61943063     0.15700
H1064       H  0.09190993  0.77620571  0.61211695     0.15700
H1065       H  0.19804982  0.63700671  0.96525798     0.13900
H1066       H  0.15436292  0.62257167  0.53497970     0.13900
H1067       H  0.16797726  0.87001785  0.96516762     0.13900
H1068       H  0.16874766  0.86832079  0.53334241     0.13900
H1069       H  0.17032960  0.75209320  0.96378804     0.27200
H1070       H  0.16701646  0.74967504  0.53593916     0.27200
C1071       C  0.37955871  0.88536332  0.87735423     0.87500
C1072       C  0.37923630  0.85372815  0.90078486    -0.52700
C1073       C  0.34812006  0.84098507  0.90705219     0.10500
C1074       C  0.32005331  0.86185653  0.88870566     0.21400
C1075       C  0.36081189  0.87669555  0.84161322    -0.53400
C1076       C  0.32914948  0.86426024  0.84700669     0.10600
C1077       C  0.35673454  0.90935401  0.89737938    -0.53000
C1078       C  0.32533625  0.89782928  0.90309911     0.11100
H1079       H  0.40160180  0.84319547  0.91289557     0.15600
H1080       H  0.29481145  0.85175717  0.89433469     0.01400
H1081       H  0.37093721  0.88238775  0.81469642     0.16000
H1082       H  0.36549256  0.93343642  0.90681176     0.15700
C1083       C  0.38260941  0.88530983  0.62683594     0.87500
C1084       C  0.36255281  0.87576164  0.66140017    -0.52700
C1085       C  0.33162998  0.86213231  0.65415833     0.10500
C1086       C  0.32481038  0.85938017  0.61199978     0.21400
C1087       C  0.38477009  0.85385646  0.60330916    -0.53400
C1088       C  0.35460738  0.84001621  0.59515096     0.10600
C1089       C  0.35968754  0.90852812  0.60573254    -0.53000
C1090       C  0.32919474  0.89548397  0.59815293     0.11100
H1091       H  0.37113031  0.88194300  0.68882262     0.15600
H1092       H  0.30039204  0.84822931  0.60466051     0.01400
H1093       H  0.40800684  0.84467432  0.59184490     0.16000
H1094       H  0.36767089  0.93299637  0.59655675     0.15700
C1095       C  0.11480016  0.61540702  0.62618048     0.87500
C1096       C  0.13405275  0.62435415  0.66144077    -0.52700
C1097       C  0.16532140  0.63750694  0.65534194     0.10500
C1098       C  0.17330284  0.64066694  0.61331223     0.21400
C1099       C  0.11362693  0.64713861  0.60289839    -0.53400
C1100       C  0.14418232  0.66063036  0.59553097     0.10600
C1101       C  0.13795803  0.59212218  0.60546256    -0.53000
C1102       C  0.16883503  0.60472932  0.59889659     0.11100
H1103       H  0.12475888  0.61787884  0.68850310     0.15600
H1104       H  0.19809548  0.65148154  0.60693278     0.01400
H1105       H  0.09078842  0.65662796  0.59080804     0.16000
H1106       H  0.12975792  0.56791862  0.59573754     0.15700
C1107       C  0.11899188  0.61428508  0.88184304     0.87500
C1108       C  0.14190880  0.59072586  0.90243127    -0.52700
C1109       C  0.17338423  0.60235409  0.90747560     0.10500
C1110       C  0.17855519  0.63800920  0.89202006     0.21400
C1111       C  0.11940856  0.64651767  0.90428142    -0.53400
C1112       C  0.15055790  0.65938775  0.91004688     0.10600
C1113       C  0.13750186  0.62203212  0.84575976    -0.53000
C1114       C  0.16916778  0.63455260  0.85044943     0.11100
H1115       H  0.13330882  0.56677044  0.91246997     0.15600
H1116       H  0.20385561  0.64819151  0.89706006     0.01400
H1117       H  0.09709324  0.65730517  0.91624531     0.16000
H1118       H  0.12716991  0.61571458  0.81911379     0.15700
O1119       O  0.24281352  0.54699072  0.53843103    -0.73400
O1120       O  0.29060790  0.99883765  0.96212729    -0.73400
O1121       O  0.24736540  0.54237712  0.96439029    -0.73500
O1122       O  0.29239014  0.99402912  0.53817880    -0.73500
O1123       O  0.25542469  0.95243423  0.53712739    -0.73400
O1124       O  0.21024567  0.50094049  0.96408744    -0.73400
O1125       O  0.25357216  0.95733124  0.96320531    -0.73400
O1126       O  0.20577187  0.50547825  0.53849120    -0.73500
Ni1127     Ni  0.26937482  0.52525901  0.50205694     1.25400
Ni1128     Ni  0.22981566  0.97383368  0.49974973     1.25400
C1129       C  0.21543866  0.53416833  0.54959448     0.88800
C1130       C  0.28067055  0.97017031  0.95127022     0.88700
C1131       C  0.21989716  0.52969971  0.95323470     0.88800
C1132       C  0.28237940  0.96547830  0.54920786     0.88900
N1133       N  0.34690226  0.75125955  0.94056132    -0.35600
N1134       N  0.34573786  0.80233626  0.50009971    -0.56100
N1135       N  0.35134340  0.75222017  0.55785018    -0.35600
N1136       N  0.35993798  0.70092719  0.50113091    -0.56100
C1137       C  0.35571099  0.78025575  0.92395236     0.28000
C1138       C  0.36387196  0.72637739  0.92371641     0.28000
C1139       C  0.36143321  0.78043044  0.57515098     0.28000
C1140       C  0.36695508  0.72639187  0.57460334     0.28000
C1141       C  0.33069355  0.81833131  0.96881005     0.36600
C1142       C  0.34364459  0.82256238  0.52995707     0.36600
C1143       C  0.35109154  0.68181001  0.96730245     0.36600
C1144       C  0.35242044  0.68237588  0.53115615     0.36600
C1145       C  0.37875758  0.77375737  0.89658223    -0.20800
C1146       C  0.38468025  0.74006687  0.89747998    -0.20800
C1147       C  0.38410464  0.77253399  0.60239565    -0.20800
C1148       C  0.38847566  0.73871772  0.60085950    -0.20800
C1149       C  0.31475172  0.84695199  0.98003358    -0.21900
C1150       C  0.34114700  0.85523243  0.51860392    -0.21900
C1151       C  0.33934537  0.65090969  0.97839868    -0.21900
C1152       C  0.33910395  0.65213666  0.52017394    -0.21900
C1153       C  0.34270314  0.81205113  0.93287643    -0.17200
C1154       C  0.35957073  0.69180748  0.93094589    -0.17200
C1155       C  0.36079930  0.69213870  0.56757212    -0.17200
C1156       C  0.35114343  0.81313282  0.56656356    -0.17200
H1157       H  0.39103265  0.79129347  0.87856627     0.15700
H1158       H  0.40344361  0.72748685  0.88189011     0.15700
H1159       H  0.39760711  0.78933875  0.62019738     0.15700
H1160       H  0.40701992  0.72509334  0.61559173     0.15700
H1161       H  0.30459935  0.86613475  0.96322404     0.13900
H1162       H  0.34408167  0.87739089  0.53459209     0.13900
H1163       H  0.33168948  0.63037181  0.96112127     0.13900
H1164       H  0.33017150  0.63218092  0.53755283     0.13900
H1165       H  0.32823330  0.74828749  0.96028740     0.27200
H1166       H  0.33273087  0.75042556  0.53791834     0.27200
N1167       N  0.24462914  0.84709769  0.69223827    -0.35600
N1168       N  0.19379259  0.84344850  0.74959431    -0.56100
N1169       N  0.24386988  0.84991338  0.80685851    -0.35600
N1170       N  0.29534894  0.85506887  0.74985060    -0.56100
C1171       C  0.21678303  0.85741884  0.67427368     0.28000
C1172       C  0.27104804  0.86182977  0.67543445     0.28000
C1173       C  0.21592495  0.86120600  0.82375691     0.28000
C1174       C  0.27000464  0.86579790  0.82269100     0.28000
C1175       C  0.17370742  0.84156535  0.71960549     0.36600
C1176       C  0.17347634  0.84255006  0.77949450     0.36600
C1177       C  0.31432582  0.84749109  0.72023254     0.36600
C1178       C  0.31393037  0.84885280  0.78018386     0.36600
C1179       C  0.22552031  0.87902501  0.64634937    -0.20800
C1180       C  0.25937257  0.88276846  0.64827337    -0.20800
C1181       C  0.22430716  0.88489305  0.84973579    -0.20800
C1182       C  0.25819849  0.88866535  0.84779815    -0.20800
C1183       C  0.14091693  0.83947665  0.73084428    -0.21900
C1184       C  0.14077249  0.84008153  0.76816665    -0.21900
C1185       C  0.34469662  0.83487105  0.73183883    -0.21900
C1186       C  0.34444391  0.83572587  0.76982293    -0.21900
C1187       C  0.18355242  0.84883321  0.68300205    -0.17200
C1188       C  0.30524804  0.85599714  0.68366418    -0.17200
C1189       C  0.30408678  0.85866601  0.81611742    -0.17200
C1190       C  0.18304386  0.85112267  0.81580409    -0.17200
H1191       H  0.20919046  0.89254746  0.62803923     0.15700
H1192       H  0.27324883  0.90103397  0.63351012     0.15700
H1193       H  0.20778625  0.89942675  0.86683963     0.15700
H1194       H  0.27225698  0.90766883  0.86137792     0.15700
H1195       H  0.11886599  0.84253639  0.71475398     0.13900
H1196       H  0.11862905  0.84378695  0.78401915     0.13900
H1197       H  0.36511068  0.82640883  0.71481632     0.13900
H1198       H  0.36459396  0.82797151  0.78759698     0.13900
H1199       H  0.24575445  0.82919494  0.71296393     0.27200
H1200       H  0.24526942  0.83041179  0.78797712     0.27200
C1201       C  0.11116894  0.88486109  0.87515707     0.87500
C1202       C  0.12041334  0.86576075  0.91048342    -0.52700
C1203       C  0.13388986  0.83458965  0.90443999     0.10500
C1204       C  0.13689222  0.82657218  0.86257287     0.21400
C1205       C  0.14277698  0.88619980  0.85167396    -0.53400
C1206       C  0.15641004  0.85572851  0.84455462     0.10600
C1207       C  0.08800424  0.86141202  0.85473309    -0.53000
C1208       C  0.10092997  0.83065321  0.84843453     0.11100
H1209       H  0.11401455  0.87511420  0.93752827     0.15600
H1210       H  0.14795263  0.80194000  0.85614574     0.01400
H1211       H  0.15206052  0.90900997  0.83930468     0.16000
H1212       H  0.06372235  0.86931932  0.84492884     0.15700
C1213       C  0.11232404  0.88474509  0.62423922     0.87500
C1214       C  0.14399033  0.88505975  0.64766956    -0.52700
C1215       C  0.15687992  0.85420948  0.65443891     0.10500
C1216       C  0.13667683  0.82575248  0.63614262     0.21400
C1217       C  0.12111748  0.86578049  0.58865596    -0.53400
C1218       C  0.13379676  0.83423024  0.59434191     0.10600
C1219       C  0.08856527  0.86159984  0.64442887    -0.53000
C1220       C  0.10085485  0.83052212  0.65048347     0.11100
H1221       H  0.15398050  0.90752256  0.66013730     0.15600
H1222       H  0.14719831  0.80082373  0.64228025     0.01400
H1223       H  0.11492845  0.87550898  0.56171295     0.16000
H1224       H  0.06443602  0.86991312  0.65428870     0.15700
C1225       C  0.38427900  0.61561414  0.62915776     0.87500
C1226       C  0.35212369  0.61680433  0.65171300    -0.52700
C1227       C  0.34033125  0.64823999  0.65788794     0.10500
C1228       C  0.36249247  0.67569148  0.64019524     0.21400
C1229       C  0.37703747  0.63482240  0.59330113    -0.53400
C1230       C  0.36546055  0.66683019  0.59852063     0.10600
C1231       C  0.40867260  0.63758593  0.64990949    -0.53000
C1232       C  0.39805332  0.66929161  0.65528500     0.11100
H1233       H  0.34070600  0.59476316  0.66360093     0.15600
H1234       H  0.35303370  0.70112343  0.64584160     0.01400
H1235       H  0.38303016  0.62461108  0.56652214     0.16000
H1236       H  0.43246118  0.62828621  0.65966489     0.15700
C1237       C  0.38705689  0.61546076  0.87123857     0.87500
C1238       C  0.37852696  0.63488829  0.90653405    -0.52700
C1239       C  0.36611070  0.66646709  0.90050790     0.10500
C1240       C  0.36386268  0.67472036  0.85867720     0.21400
C1241       C  0.35545488  0.61543972  0.84778267    -0.53400
C1242       C  0.34293317  0.64644868  0.84091324     0.10600
C1243       C  0.41128335  0.63779155  0.85084768    -0.53000
C1244       C  0.39988883  0.66911154  0.84460438     0.11100
H1245       H  0.38434830  0.62515636  0.93356164     0.15600
H1246       H  0.35372578  0.69973673  0.85230362     0.01400
H1247       H  0.34480797  0.59292999  0.83610569     0.16000
H1248       H  0.43544207  0.62886007  0.84185079     0.15700
O1249       O  0.45822806  0.74137164  0.78520239    -0.73400
O1250       O  0.00287149  0.79388811  0.71255428    -0.73400
O1251       O  0.45823185  0.74202316  0.71193255    -0.73500
O1252       O  0.00329089  0.79410080  0.78657776    -0.73500
O1253       O  0.04509377  0.75740766  0.78632159    -0.73400
O1254       O  0.50056238  0.70600762  0.71119006    -0.73400
O1255       O  0.04482735  0.75738573  0.71278206    -0.73400
O1256       O  0.50054744  0.70531740  0.78499761    -0.73500
Ni1257     Ni  0.47895863  0.76858592  0.74889181     1.25400
Ni1258     Ni  0.02376385  0.73096935  0.74973552     1.25400
C1259       C  0.47171918  0.71432954  0.79626960     0.88800
C1260       C  0.03143217  0.78430132  0.70114759     0.88700
C1261       C  0.47147279  0.71491565  0.70064119     0.88800
C1262       C  0.03177630  0.78430449  0.79802346     0.88900
N1263       N  0.25118622  0.65258962  0.69339232    -0.35600
N1264       N  0.20135214  0.64230252  0.75212720    -0.56100
N1265       N  0.25331881  0.64936707  0.80811735    -0.35600
N1266       N  0.30157926  0.65565130  0.74984409    -0.56100
C1267       C  0.22531457  0.63637133  0.67762990     0.28000
C1268       C  0.27938965  0.64267262  0.67587475     0.28000
C1269       C  0.22804446  0.63319334  0.82504688     0.28000
C1270       C  0.28211326  0.63924657  0.82413801     0.28000
C1271       C  0.18206441  0.64989391  0.72266371     0.36600
C1272       C  0.18318703  0.64861485  0.78282486     0.36600
C1273       C  0.31875659  0.66584582  0.71985836     0.36600
C1274       C  0.31997648  0.66429034  0.77952993     0.36600
C1275       C  0.23753504  0.61481682  0.65127978    -0.20800
C1276       C  0.27141370  0.61960452  0.64907372    -0.20800
C1277       C  0.24114365  0.61143258  0.85065179    -0.20800
C1278       C  0.27510660  0.61599240  0.85112209    -0.20800
C1279       C  0.15182764  0.66247840  0.73476783    -0.21900
C1280       C  0.15254759  0.66169803  0.77280713    -0.21900
C1281       C  0.34728830  0.68211364  0.73071309    -0.21900
C1282       C  0.34813856  0.68103219  0.76827182    -0.21900
C1283       C  0.19117676  0.64218229  0.68571156    -0.17200
C1284       C  0.31177415  0.65452426  0.68396630    -0.17200
C1285       C  0.31404372  0.65173639  0.81518555    -0.17200
C1286       C  0.19371738  0.63951876  0.81891448    -0.17200
H1287       H  0.22390929  0.59596639  0.63694810     0.15700
H1288       H  0.28812082  0.60642866  0.63088497     0.15700
H1289       H  0.22789145  0.59289383  0.86590788     0.15700
H1290       H  0.29240354  0.60281550  0.86860857     0.15700
H1291       H  0.13131052  0.67118760  0.71807391     0.13900
H1292       H  0.13270132  0.66973310  0.79085943     0.13900
H1293       H  0.36571845  0.69338087  0.71369438     0.13900
H1294       H  0.36752096  0.69109511  0.78492524     0.13900
H1295       H  0.24934279  0.67143352  0.71307635     0.27200
H1296       H  0.25075901  0.66861947  0.78903314     0.27200
C1297       C  0.42025482  0.69492960  0.82582817    -0.15400
C1298       C  0.45332836  0.69194457  0.82071267    -0.30600
H1299       H  0.40759527  0.71698568  0.81575403     0.13600
H1300       H  0.46709495  0.67113014  0.83196552     0.14200
C1301       C  0.45229201  0.69213171  0.67724791    -0.15400
C1302       C  0.41902836  0.69500286  0.67353857    -0.30600
H1303       H  0.46555566  0.67104747  0.66581192     0.13600
H1304       H  0.40681985  0.71734174  0.68351652     0.14200
C1305       C  0.08250771  0.80494322  0.67180000    -0.15400
C1306       C  0.04921590  0.80577198  0.67532612    -0.30600
H1307       H  0.09688635  0.78558974  0.68532143     0.13600
H1308       H  0.03457306  0.82450824  0.66122869     0.14200
C1309       C  0.04952925  0.80538082  0.82413090    -0.15400
C1310       C  0.08287040  0.80493850  0.82714669    -0.30600
H1311       H  0.03474727  0.82357104  0.83890839     0.13600
H1312       H  0.09741439  0.78609578  0.81296638     0.14200
C1313       C  0.19972616  0.58217460  0.92588354    -0.15400
C1314       C  0.19754066  0.54883968  0.92933162    -0.30600
H1315       H  0.22160670  0.59487811  0.93638746     0.13600
H1316       H  0.17697852  0.53522426  0.91720692     0.14200
C1317       C  0.19365896  0.55270870  0.57462679    -0.15400
C1318       C  0.19440953  0.58615297  0.57753872    -0.30600
H1319       H  0.17490076  0.53827530  0.58898756     0.13600
H1320       H  0.21378981  0.60035146  0.56377845     0.14200
C1321       C  0.30389065  0.91378257  0.57635320    -0.15400
C1322       C  0.30343380  0.94723273  0.57505098    -0.30600
H1323       H  0.28569879  0.89938600  0.56097278     0.13600
H1324       H  0.32104951  0.96180096  0.59095055     0.14200
C1325       C  0.29935412  0.91811549  0.92193118    -0.15400
C1326       C  0.30220600  0.95130171  0.92630018    -0.30600
H1327       H  0.27746222  0.90545382  0.93253374     0.13600
H1328       H  0.32271519  0.96493144  0.91411047     0.14200
C1329       C  0.09640533  0.91768599  0.62033511    -0.12200
C1330       C  0.07753203  0.94114725  0.62239335    -0.13800
C1331       C  0.08235202  0.59868273  0.63079007    -0.12200
C1332       C  0.05965525  0.57884790  0.62935466    -0.13800
C1333       C  0.39902603  0.58218014  0.62529944    -0.12200
C1334       C  0.41805603  0.55883652  0.62654590    -0.13800
C1335       C  0.43804897  0.92122590  0.63074892    -0.12200
C1336       C  0.41490314  0.90197979  0.63234968    -0.13800
C1337       C  0.08603619  0.59845681  0.87803213    -0.12200
C1338       C  0.06297834  0.57903339  0.87836064    -0.13800
C1339       C  0.07454886  0.93995538  0.87794317    -0.12200
C1340       C  0.09429351  0.91722240  0.87952462    -0.13800
C1341       C  0.41251869  0.90126185  0.87336427    -0.12200
C1342       C  0.43535028  0.92096799  0.87482234    -0.13800
C1343       C  0.42207241  0.55967595  0.87534745    -0.12200
C1344       C  0.40254087  0.58255857  0.87604808    -0.13800
O1345       O  0.96340120  0.02581795  0.41035743    -0.73400
O1346       O  0.54182156  0.47088929  0.40365028    -0.73400
O1347       O  0.53034552  0.03807340  0.40779357    -0.73500
O1348       O  0.97544005  0.46132164  0.40893507    -0.73500
O1349       O  0.97351238  0.46127406  0.34762154    -0.73400
O1350       O  0.52983070  0.03924232  0.34647275    -0.73400
O1351       O  0.53937705  0.46973000  0.34239743    -0.73400
O1352       O  0.96154917  0.02909319  0.34912515    -0.73500
Ni1353     Ni  0.00227969  0.99885600  0.40913316     1.25400
Ni1354     Ni  0.50022109  0.49805965  0.34146270     1.25400
C1355       C  0.94956518  0.03605414  0.38096846     0.88800
C1356       C  0.55319714  0.46096539  0.37279057     0.88700
C1357       C  0.53978831  0.05097462  0.37714679     0.88800
C1358       C  0.96545474  0.44854590  0.37844570     0.88900
O1359       O  0.96180501  0.02837112  0.09583343    -0.73400
O1360       O  0.54146006  0.47135767  0.09814299    -0.73400
O1361       O  0.97489575  0.46155542  0.09827478    -0.73500
O1362       O  0.52950565  0.03911271  0.09875104    -0.73500
O1363       O  0.52653266  0.03695920  0.15993545    -0.73400
O1364       O  0.97506625  0.46267187  0.15960187    -0.73400
O1365       O  0.54161682  0.47140340  0.15947019    -0.73400
O1366       O  0.95951368  0.02844408  0.15710044    -0.73500
Ni1367     Ni  0.00006369  0.00009388  0.09539236     1.25400
Ni1368     Ni  0.50342572  0.50098979  0.16179982     1.25400
C1369       C  0.94845759  0.03827195  0.12571393     0.88800
C1370       C  0.55388698  0.46170003  0.12860468     0.88700
C1371       C  0.96532327  0.44980535  0.12935151     0.88800
C1372       C  0.53761080  0.05043431  0.13058821     0.88900
N1373       N  0.65256865  0.24652851  0.44269409    -0.35600
N1374       N  0.65593545  0.19510592  0.00337691    -0.56100
N1375       N  0.65181847  0.24530943  0.06082831    -0.35600
N1376       N  0.64354736  0.29677938  0.00337516    -0.56100
C1377       C  0.64419226  0.21743923  0.42597281     0.28000
C1378       C  0.63610325  0.27134511  0.42522590     0.28000
C1379       C  0.64185764  0.21725968  0.07867308     0.28000
C1380       C  0.63631395  0.27133907  0.07735910     0.28000
C1381       C  0.66912244  0.18028257  0.47146757     0.36600
C1382       C  0.65875547  0.17494421  0.03329534     0.36600
C1383       C  0.64790401  0.31622774  0.46899756     0.36600
C1384       C  0.65066855  0.31538449  0.03348620     0.36600
C1385       C  0.62200504  0.22381611  0.39775683    -0.20800
C1386       C  0.61612517  0.25754625  0.39826953    -0.20800
C1387       C  0.61958369  0.22550312  0.10616358    -0.20800
C1388       C  0.61508121  0.25923336  0.10400595    -0.20800
C1389       C  0.68669688  0.15276933  0.48314260    -0.21900
C1390       C  0.66227232  0.14240687  0.02186523    -0.20700
C1391       C  0.66006688  0.34699216  0.47992819    -0.21900
C1392       C  0.66347615  0.34588515  0.02259941    -0.21900
C1393       C  0.65699228  0.18573069  0.43558017    -0.17200
C1394       C  0.64037345  0.30594240  0.43237876    -0.17200
C1395       C  0.64218244  0.30562621  0.06991413    -0.17200
C1396       C  0.65144293  0.18430810  0.07008737    -0.17200
H1397       H  0.61034878  0.20619411  0.37934990     0.15700
H1398       H  0.59793277  0.27010728  0.38188165     0.15700
H1399       H  0.60618135  0.20894295  0.12434229     0.15700
H1400       H  0.59636258  0.27287833  0.11834011     0.15700
H1401       H  0.69846028  0.13421012  0.46664025     0.13900
H1402       H  0.66086600  0.12020881  0.03801158     0.13900
H1403       H  0.66850902  0.36712960  0.46251234     0.13900
H1404       H  0.67193172  0.36598579  0.04005908     0.13900
H1405       H  0.67071798  0.24965245  0.46296976     0.27200
H1406       H  0.67012922  0.24688228  0.04051456     0.27200
C1407       C  0.88675776  0.38607754  0.38025629     0.87500
C1408       C  0.88618660  0.35438000  0.40348552    -0.52700
C1409       C  0.85501225  0.34195617  0.40967470     0.10500
C1410       C  0.82713079  0.36321925  0.39158503     0.21400
C1411       C  0.86786662  0.37772300  0.34445634    -0.53400
C1412       C  0.83603417  0.36558622  0.34980874     0.10600
C1413       C  0.86421179  0.41041379  0.40032627    -0.53000
C1414       C  0.83271064  0.39921359  0.40607440     0.11100
H1415       H  0.90845405  0.34355637  0.41551939     0.15600
H1416       H  0.80197619  0.35312648  0.39750120     0.01400
H1417       H  0.87813377  0.38333330  0.31759609     0.16000
H1418       H  0.87311895  0.43453079  0.40948180     0.15700
C1419       C  0.88684953  0.38619983  0.12578411     0.87500
C1420       C  0.86768967  0.37708699  0.16098835    -0.52700
C1421       C  0.83639797  0.36401660  0.15496690     0.10500
C1422       C  0.82824727  0.36117820  0.11303256     0.21400
C1423       C  0.88786324  0.35464929  0.10215185    -0.53400
C1424       C  0.85720658  0.34132754  0.09489561     0.10600
C1425       C  0.86371349  0.40970699  0.10540159    -0.53000
C1426       C  0.83278241  0.39716810  0.09897371     0.11100
H1427       H  0.87709260  0.38347161  0.18801883     0.15600
H1428       H  0.80340663  0.35047116  0.10667414     0.01400
H1429       H  0.91060223  0.34525059  0.08974432     0.16000
H1430       H  0.87189797  0.43397880  0.09584325     0.15700
C1431       C  0.61717039  0.11307560  0.13063689     0.87500
C1432       C  0.63678789  0.12250568  0.16560355    -0.52700
C1433       C  0.66821545  0.13524056  0.15901782     0.10500
C1434       C  0.67589611  0.13757871  0.11688959     0.21400
C1435       C  0.61627112  0.14436262  0.10659689    -0.53400
C1436       C  0.64693267  0.15741488  0.09881250     0.10600
C1437       C  0.64002529  0.08921123  0.11031630    -0.53000
C1438       C  0.67096594  0.10150182  0.10327140     0.11100
H1439       H  0.62757537  0.11661785  0.19285668     0.15600
H1440       H  0.70072507  0.14807124  0.11005278     0.01400
H1441       H  0.59346798  0.15402373  0.09458816     0.16000
H1442       H  0.63154733  0.06493119  0.10113781     0.15700
C1443       C  0.62061438  0.11176389  0.38081493     0.87500
C1444       C  0.64234153  0.08774107  0.40217769    -0.52700
C1445       C  0.67372857  0.09888329  0.40881868     0.10500
C1446       C  0.67999906  0.13467290  0.39411534     0.21400
C1447       C  0.62063965  0.14382219  0.40353892    -0.53400
C1448       C  0.65170931  0.15623041  0.41067652     0.10600
C1449       C  0.64082831  0.11955687  0.34574642    -0.53000
C1450       C  0.67244080  0.13196184  0.35217468     0.11100
H1451       H  0.63298631  0.06384156  0.41151136     0.15600
H1452       H  0.70491589  0.14486309  0.40090039     0.01400
H1453       H  0.59805418  0.15498624  0.41440941     0.16000
H1454       H  0.63140594  0.11377928  0.31855795     0.15700
O1455       O  0.74230990  0.04459840  0.03929106    -0.73400
O1456       O  0.79460948  0.50043746  0.46493484    -0.73400
O1457       O  0.74458681  0.03891051  0.46883452    -0.73500
O1458       O  0.79609295  0.49622223  0.03910758    -0.73500
O1459       O  0.75952392  0.45428188  0.03818461    -0.73400
O1460       O  0.70778974  0.99719408  0.46784453    -0.73400
O1461       O  0.75840946  0.45825508  0.46328012    -0.73400
O1462       O  0.70561673  0.00279176  0.04099510    -0.73500
Ni1463     Ni  0.76749876  0.02336989  0.00145522     1.25400
Ni1464     Ni  0.73321270  0.47572686  0.00155805     1.25400
C1465       C  0.71563459  0.03138456  0.05190171     0.88800
C1466       C  0.78601231  0.47153128  0.45341230     0.88700
C1467       C  0.71749080  0.02597405  0.45706374     0.88800
C1468       C  0.78645917  0.46749043  0.05003386     0.88900
N1469       N  0.85232777  0.25248092  0.44388806    -0.35600
N1470       N  0.84671565  0.30528491  0.99909844    -0.56100
N1471       N  0.84874023  0.25425542  0.05629017    -0.35600
N1472       N  0.85483707  0.20341479  0.99785368    -0.56100
C1473       C  0.86196700  0.28109257  0.42705566     0.28000
C1474       C  0.86878478  0.22701767  0.42759877     0.28000
C1475       C  0.86128053  0.28172833  0.07319523     0.28000
C1476       C  0.86433276  0.22748444  0.07118576     0.28000
C1477       C  0.83666559  0.31953030  0.47099057     0.36600
C1478       C  0.84513513  0.32525986  0.02920055     0.36600
C1479       C  0.85340245  0.18338673  0.47143235     0.36600
C1480       C  0.84751342  0.18442913  0.02759685     0.36600
C1481       C  0.88513344  0.27377847  0.40004789    -0.20800
C1482       C  0.89019850  0.23987739  0.40144621    -0.20800
C1483       C  0.88559854  0.27241965  0.09802299    -0.20800
C1484       C  0.88844448  0.23846141  0.09531816    -0.20800
C1485       C  0.81963604  0.34768865  0.48161047    -0.21900
C1486       C  0.84325108  0.35810410  0.01820104    -0.21900
C1487       C  0.83950259  0.15333478  0.48243010    -0.21900
C1488       C  0.83443599  0.15422516  0.01616036    -0.21900
C1489       C  0.84928234  0.31312858  0.43545168    -0.17200
C1490       C  0.86321782  0.19270405  0.43513148    -0.17200
C1491       C  0.85653006  0.19355066  0.06401893    -0.17200
C1492       C  0.85231788  0.31505334  0.06566721    -0.17200
H1493       H  0.89790467  0.29088751  0.38193659     0.15700
H1494       H  0.90863495  0.22641516  0.38617223     0.15700
H1495       H  0.90150527  0.28842952  0.11423483     0.15700
H1496       H  0.90828848  0.22393729  0.10664546     0.15700
H1497       H  0.80905034  0.36640861  0.46448089     0.13900
H1498       H  0.84632214  0.38005656  0.03450306     0.13900
H1499       H  0.83059256  0.13338648  0.46503100     0.13900
H1500       H  0.82614858  0.13382138  0.03329587     0.13900
H1501       H  0.83330695  0.25010485  0.46332023     0.27200
H1502       H  0.82894699  0.25364332  0.03766613     0.27200
N1503       N  0.75097160  0.34833058  0.19429526    -0.35600
N1504       N  0.70176314  0.34295710  0.25149901    -0.56100
N1505       N  0.75128208  0.34744713  0.30946638    -0.35600
N1506       N  0.80189560  0.35788579  0.25223709    -0.56100
C1507       C  0.72242484  0.35796337  0.17724248     0.28000
C1508       C  0.77652990  0.36460357  0.17798127     0.28000
C1509       C  0.72245015  0.35635936  0.32640608     0.28000
C1510       C  0.77635510  0.36420642  0.32618145     0.28000
C1511       C  0.68405160  0.33353775  0.22155536     0.36600
C1512       C  0.68443327  0.33243993  0.28124954     0.36600
C1513       C  0.82062050  0.35081192  0.22216795     0.36600
C1514       C  0.82081851  0.35141379  0.28235105     0.36600
C1515       C  0.72985018  0.38089048  0.15011655    -0.20800
C1516       C  0.76375712  0.38585659  0.15160974    -0.20800
C1517       C  0.72923025  0.37904741  0.35395779    -0.20800
C1518       C  0.76292215  0.38491398  0.35262101    -0.20800
C1519       C  0.65626566  0.31605635  0.23244070    -0.21900
C1520       C  0.65656312  0.31526261  0.27000510    -0.21900
C1521       C  0.85121034  0.33833308  0.23331561    -0.21900
C1522       C  0.85136378  0.33878348  0.27133915    -0.21900
C1523       C  0.69028151  0.34568647  0.18579084    -0.17200
C1524       C  0.81083923  0.35895391  0.18552461    -0.17200
C1525       C  0.81086888  0.35969525  0.31888348    -0.17200
C1526       C  0.69048598  0.34406223  0.31723762    -0.17200
H1527       H  0.71276902  0.39375738  0.13208150     0.15700
H1528       H  0.77703814  0.40454592  0.13665070     0.15700
H1529       H  0.71182659  0.39131854  0.37212043     0.15700
H1530       H  0.77566850  0.40376502  0.36784918     0.15700
H1531       H  0.63775900  0.30491484  0.21546285     0.13900
H1532       H  0.63835512  0.30333392  0.28679188     0.13900
H1533       H  0.87140626  0.32985786  0.21599348     0.13900
H1534       H  0.87162709  0.33059153  0.28871515     0.13900
H1535       H  0.75328229  0.32950572  0.21391681     0.27200
H1536       H  0.75400183  0.32899176  0.28947931     0.27200
C1537       C  0.61628332  0.38205894  0.37021132     0.87500
C1538       C  0.62309758  0.36284734  0.40618242    -0.52700
C1539       C  0.63535718  0.33103810  0.40124302     0.10500
C1540       C  0.63921863  0.32227489  0.35965310     0.21400
C1541       C  0.64890475  0.38134956  0.34839416    -0.53400
C1542       C  0.66126242  0.35004203  0.34248495     0.10600
C1543       C  0.59276398  0.35978552  0.34881538    -0.53000
C1544       C  0.60389203  0.32820202  0.34375653     0.11100
H1545       H  0.61639482  0.37294299  0.43280217     0.15600
H1546       H  0.64921493  0.29703736  0.35413445     0.01400
H1547       H  0.66026047  0.40355757  0.33681973     0.16000
H1548       H  0.56916156  0.36888711  0.33832973     0.15700
C1549       C  0.61650094  0.38215795  0.13054816     0.87500
C1550       C  0.64868536  0.38209216  0.15320743    -0.52700
C1551       C  0.66138705  0.35104718  0.15981006     0.10500
C1552       C  0.64004506  0.32281843  0.14238180     0.21400
C1553       C  0.62440364  0.36278005  0.09494420    -0.53400
C1554       C  0.63691623  0.33116610  0.10057511     0.10600
C1555       C  0.59276695  0.35968517  0.15150242    -0.53000
C1556       C  0.60428265  0.32837237  0.15732825     0.11100
H1557       H  0.65948371  0.40457135  0.16477410     0.15600
H1558       H  0.65019570  0.29770887  0.14832028     0.01400
H1559       H  0.61814626  0.37251051  0.06802106     0.16000
H1560       H  0.56868921  0.36836971  0.16112289     0.15700
C1561       C  0.88618408  0.11870237  0.12448327     0.87500
C1562       C  0.85546182  0.11723804  0.14923864    -0.52700
C1563       C  0.84133648  0.14745093  0.15620711     0.10500
C1564       C  0.85936817  0.17667830  0.13637986     0.21400
C1565       C  0.87523750  0.13668301  0.08890155    -0.53400
C1566       C  0.86152541  0.16781489  0.09457574     0.10600
C1567       C  0.90943198  0.14338077  0.14330622    -0.53000
C1568       C  0.89571538  0.17394325  0.14942596     0.11100
H1569       H  0.84708749  0.09448489  0.16250921     0.15600
H1570       H  0.84793175  0.20126888  0.14227646     0.01400
H1571       H  0.88107889  0.12696087  0.06185007     0.16000
H1572       H  0.93423958  0.13635740  0.15222141     0.15700
C1573       C  0.88856386  0.11356856  0.37917917     0.87500
C1574       C  0.87995654  0.13456280  0.41314635    -0.52700
C1575       C  0.86996005  0.16667248  0.40540295     0.10500
C1576       C  0.87026206  0.17383032  0.36300393     0.21400
C1577       C  0.85820544  0.11487400  0.35393393    -0.53400
C1578       C  0.84795747  0.14635180  0.34533328     0.10600
C1579       C  0.91523915  0.13336824  0.35966235    -0.53000
C1580       C  0.90657121  0.16486713  0.35117849     0.11100
H1581       H  0.88401970  0.12522021  0.44071720     0.15600
H1582       H  0.86202791  0.19913462  0.35511071     0.01400
H1583       H  0.84637807  0.09271663  0.34282474     0.16000
H1584       H  0.93964829  0.12313570  0.35310023     0.15700
O1585       O  0.94448582  0.25998223  0.28134869    -0.73400
O1586       O  0.50227001  0.29161372  0.21228653    -0.73400
O1587       O  0.95051366  0.25184019  0.20872893    -0.73500
O1588       O  0.50251365  0.29244770  0.28603085    -0.73500
O1589       O  0.54414783  0.25559509  0.28601213    -0.73400
O1590       O  0.98915271  0.21229957  0.21533012    -0.73400
O1591       O  0.54377657  0.25462394  0.21278646    -0.73400
O1592       O  0.97996810  0.21770129  0.28829514    -0.73500
Ni1593     Ni  0.97179205  0.27960115  0.24486922     1.25400
Ni1594     Ni  0.52256572  0.22870920  0.24999700     1.25400
C1595       C  0.95193405  0.23194688  0.29535243     0.88800
C1596       C  0.53101929  0.28194599  0.20145818     0.88700
C1597       C  0.96264617  0.22328173  0.20033246     0.88800
C1598       C  0.53129804  0.28299732  0.29694287     0.88900
N1599       N  0.75472712  0.15034896  0.19671027    -0.35600
N1600       N  0.70546853  0.14122582  0.25517010    -0.56100
N1601       N  0.75805590  0.15012951  0.31124668    -0.35600
N1602       N  0.80658074  0.15691131  0.25273749    -0.56100
C1603       C  0.72857200  0.13438489  0.18091447     0.28000
C1604       C  0.78261113  0.14025436  0.17879281     0.28000
C1605       C  0.73271044  0.13464130  0.32925688     0.28000
C1606       C  0.78686923  0.14200502  0.32884375     0.28000
C1607       C  0.68581307  0.14848862  0.22588521     0.36600
C1608       C  0.68760014  0.14797118  0.28587961     0.36600
C1609       C  0.82554869  0.16037239  0.22202846     0.36600
C1610       C  0.82719702  0.16130600  0.28201205     0.36600
C1611       C  0.74038705  0.11262785  0.15461841    -0.20800
C1612       C  0.77418556  0.11715689  0.15215237    -0.20800
C1613       C  0.74600785  0.11561760  0.35726727    -0.20800
C1614       C  0.77964268  0.12132011  0.35819434    -0.20800
C1615       C  0.65576208  0.16133655  0.23806035    -0.21900
C1616       C  0.65690847  0.16106126  0.27601493    -0.21900
C1617       C  0.85802214  0.16699327  0.23224353    -0.21900
C1618       C  0.85897503  0.16809672  0.26967888    -0.21900
C1619       C  0.69447294  0.14033083  0.18904546    -0.17200
C1620       C  0.81538896  0.15143818  0.18588012    -0.17200
C1621       C  0.81952476  0.15226193  0.31876064    -0.17200
C1622       C  0.69801429  0.13887867  0.32192021    -0.17200
H1623       H  0.72655285  0.09381539  0.14047805     0.15700
H1624       H  0.79065650  0.10362182  0.13401312     0.15700
H1625       H  0.73325035  0.09815812  0.37440168     0.15700
H1626       H  0.79666057  0.11013358  0.37758581     0.15700
H1627       H  0.63511365  0.16991116  0.22148266     0.13900
H1628       H  0.63726778  0.16940193  0.29417606     0.13900
H1629       H  0.87982382  0.16682968  0.21552875     0.13900
H1630       H  0.88142407  0.17003433  0.28549822     0.13900
H1631       H  0.75328953  0.16922642  0.21635691     0.27200
H1632       H  0.75547408  0.16734521  0.28999714     0.27200
C1633       C  0.93200706  0.18551925  0.33243512    -0.15400
C1634       C  0.92645661  0.21544262  0.31801478    -0.30600
H1635       H  0.95653518  0.17447760  0.32880701     0.13600
H1636       H  0.90213550  0.22702430  0.32042761     0.14200
C1637       C  0.94609169  0.20133126  0.17407610    -0.15400
C1638       C  0.91297659  0.20104658  0.16968276    -0.30600
H1639       H  0.96152402  0.18246302  0.16129800     0.13600
H1640       H  0.89784599  0.22037054  0.18222956     0.14200
C1641       C  0.58375948  0.30239561  0.17575090    -0.15400
C1642       C  0.55031599  0.30417878  0.17766752    -0.30600
H1643       H  0.59628358  0.28081026  0.18714455     0.13600
H1644       H  0.53684695  0.32437081  0.16466316     0.14200
C1645       C  0.55031984  0.30536612  0.32074635    -0.15400
C1646       C  0.58346922  0.30235454  0.32510138    -0.30600
H1647       H  0.53685733  0.32628240  0.33224555     0.13600
H1648       H  0.59585551  0.28012125  0.31510892     0.14200
C1649       C  0.69899001  0.07820095  0.42820870    -0.15400
C1650       C  0.69581440  0.04500182  0.43238082    -0.30600
H1651       H  0.72082577  0.09055630  0.43931107     0.13600
H1652       H  0.67524639  0.03155204  0.42007097     0.14200
C1653       C  0.69490580  0.04946081  0.07826241    -0.15400
C1654       C  0.69621331  0.08276078  0.08180064    -0.30600
H1655       H  0.67622935  0.03501044  0.09273560     0.13600
H1656       H  0.71557437  0.09689069  0.06791483     0.14200
C1657       C  0.80719700  0.41578354  0.07795848    -0.15400
C1658       C  0.80783007  0.44919632  0.07551090    -0.30600
H1659       H  0.78805827  0.40159544  0.06378643     0.13600
H1660       H  0.82632947  0.46362390  0.09028911     0.14200
C1661       C  0.80663076  0.41974774  0.42464624    -0.15400
C1662       C  0.80949544  0.45285112  0.43014067    -0.30600
H1663       H  0.78417877  0.40719301  0.43386965     0.13600
H1664       H  0.83084503  0.46651071  0.41989798     0.14200
C1665       C  0.60058798  0.41511555  0.12632222    -0.12200
C1666       C  0.58119772  0.43823839  0.12753210    -0.13800
C1667       C  0.58437836  0.09686126  0.13560474    -0.12200
C1668       C  0.56108067  0.07765632  0.13386948    -0.13800
C1669       C  0.90319917  0.08617647  0.12086081    -0.12200
C1670       C  0.92187067  0.06251950  0.12331949    -0.13800
C1671       C  0.94209556  0.42243742  0.13059237    -0.12200
C1672       C  0.91927809  0.40274569  0.13086757    -0.13800
C1673       C  0.58740383  0.09656509  0.37577903    -0.12200
C1674       C  0.56366815  0.07790146  0.37653038    -0.13800
C1675       C  0.58102662  0.43812299  0.37297040    -0.12200
C1676       C  0.60063711  0.41518660  0.37391753    -0.13800
C1677       C  0.91996846  0.40125631  0.37648106    -0.12200
C1678       C  0.94307800  0.42052833  0.37805589    -0.13800
C1679       C  0.92102225  0.05726079  0.38430516    -0.12200
C1680       C  0.90161674  0.08009113  0.38570320    -0.13800
O1681       O  0.95753991  0.02938487  0.90505820    -0.73400
O1682       O  0.53858095  0.47184693  0.90838614    -0.73400
O1683       O  0.52437370  0.03877803  0.90799836    -0.73500
O1684       O  0.97089256  0.46208515  0.90207141    -0.73500
O1685       O  0.97373870  0.46444277  0.84085323    -0.73400
O1686       O  0.52456613  0.03803063  0.84666964    -0.73400
O1687       O  0.54172419  0.47237100  0.84713818    -0.73400
O1688       O  0.95744228  0.02918198  0.84372261    -0.73500
Ni1689     Ni  0.99582713  0.00114758  0.90721115     1.25400
Ni1690     Ni  0.50292922  0.50079787  0.84281040     1.25400
C1691       C  0.94503123  0.03877783  0.87452128     0.88800
C1692       C  0.55267423  0.46278816  0.87861800     0.88700
C1693       C  0.53392895  0.05089296  0.87701265     0.88800
C1694       C  0.96277711  0.45094984  0.87018178     0.88900
O1695       O  0.95897957  0.02913800  0.59830806    -0.73400
O1696       O  0.53600774  0.47207815  0.59506472    -0.73400
O1697       O  0.96979131  0.46219553  0.59458517    -0.73500
O1698       O  0.52530418  0.03853290  0.59189289    -0.73500
O1699       O  0.52792752  0.03848036  0.65316616    -0.73400
O1700       O  0.97047370  0.46156028  0.65591925    -0.73400
O1701       O  0.53683498  0.47061431  0.65638383    -0.73400
O1702       O  0.96177842  0.03140791  0.65951084    -0.73500
Ni1703     Ni  0.99742018  0.00127525  0.59522621     1.25400
Ni1704     Ni  0.49772206  0.49864168  0.66010767     1.25400
C1705       C  0.94774203  0.03953318  0.62903187     0.88800
C1706       C  0.54884914  0.46187532  0.62508379     0.88700
C1707       C  0.96062970  0.44944437  0.62539652     0.88800
C1708       C  0.53577199  0.05119797  0.62221452     0.88900
N1709       N  0.65027575  0.24579770  0.94605137    -0.35600
N1710       N  0.65849804  0.19782652  0.50092501    -0.56100
N1711       N  0.65117973  0.24733744  0.55746121    -0.35600
N1712       N  0.64104656  0.29755082  0.49919025    -0.56100
C1713       C  0.64015581  0.21779286  0.92821465     0.28000
C1714       C  0.63544067  0.27208418  0.92916412     0.28000
C1715       C  0.64196363  0.21871476  0.57463643     0.28000
C1716       C  0.63432654  0.27260848  0.57353851     0.28000
C1717       C  0.65769816  0.17509112  0.97327431     0.36600
C1718       C  0.66803111  0.18066726  0.53113432     0.36600
C1719       C  0.65036283  0.31572336  0.97342125     0.36600
C1720       C  0.64743742  0.31665712  0.52916716     0.36600
C1721       C  0.61841128  0.22633578  0.90031482    -0.20800
C1722       C  0.61450476  0.26019133  0.90206042    -0.20800
C1723       C  0.61883318  0.22585832  0.60166999    -0.20800
C1724       C  0.61325475  0.25959315  0.59996492    -0.20800
C1725       C  0.66150787  0.14249526  0.98448489    -0.21900
C1726       C  0.68599847  0.15301579  0.52077358    -0.20700
C1727       C  0.66330386  0.34609682  0.98461674    -0.21900
C1728       C  0.65971923  0.34728020  0.51793317    -0.21900
C1729       C  0.64952693  0.18466154  0.93672269    -0.17200
C1730       C  0.64158153  0.30635079  0.93690092    -0.17200
C1731       C  0.63929143  0.30694747  0.56582120    -0.17200
C1732       C  0.65473594  0.18672611  0.56638795    -0.17200
H1733       H  0.60518493  0.20991478  0.88183075     0.15700
H1734       H  0.59651684  0.27401445  0.88677290     0.15700
H1735       H  0.60633750  0.20870686  0.61996026     0.15700
H1736       H  0.59441674  0.27260990  0.61500113     0.15700
H1737       H  0.65935594  0.12035305  0.96843742     0.13900
H1738       H  0.69716381  0.13474577  0.53816971     0.13900
H1739       H  0.67163640  0.36640102  0.96737027     0.13900
H1740       H  0.66772614  0.36770799  0.53518073     0.13900
H1741       H  0.66840138  0.24714791  0.96657481     0.27200
H1742       H  0.67005061  0.24994138  0.53789251     0.27200
C1743       C  0.88471448  0.38750946  0.87130450     0.87500
C1744       C  0.88692909  0.35616593  0.89508985    -0.52700
C1745       C  0.85672571  0.34270966  0.90389445     0.10500
C1746       C  0.82694583  0.36221180  0.88727220     0.21400
C1747       C  0.86420973  0.37792766  0.83714589    -0.53400
C1748       C  0.83332612  0.36450462  0.84494276     0.10600
C1749       C  0.86228776  0.41107379  0.89255424    -0.53000
C1750       C  0.83179438  0.39841312  0.90081641     0.11100
H1751       H  0.91022686  0.34684053  0.90623406     0.15600
H1752       H  0.80259464  0.35122992  0.89515064     0.01400
H1753       H  0.87254717  0.38385348  0.80955802     0.16000
H1754       H  0.87077999  0.43545601  0.90136225     0.15700
C1755       C  0.88151978  0.38671907  0.62314674     0.87500
C1756       C  0.86216496  0.37797189  0.65850854    -0.52700
C1757       C  0.83069175  0.36516099  0.65250411     0.10500
C1758       C  0.82250404  0.36258864  0.61059836     0.21400
C1759       C  0.88199217  0.35504456  0.59989146    -0.53400
C1760       C  0.85117610  0.34200980  0.59298682     0.10600
C1761       C  0.85883685  0.41048275  0.60257197    -0.53000
C1762       C  0.82765294  0.39862639  0.59628216     0.11100
H1763       H  0.87180582  0.38380414  0.68559385     0.15600
H1764       H  0.79755788  0.35212605  0.60430408     0.01400
H1765       H  0.90467772  0.34477338  0.58821444     0.16000
H1766       H  0.86743456  0.43469813  0.59333428     0.15700
C1767       C  0.61473333  0.11363389  0.61955085     0.87500
C1768       C  0.63312835  0.12112636  0.65586701    -0.52700
C1769       C  0.66518811  0.13288456  0.65145681     0.10500
C1770       C  0.67497292  0.13570095  0.60999186     0.21400
C1771       C  0.61630025  0.14568875  0.59684893    -0.53400
C1772       C  0.64787465  0.15764172  0.59153757     0.10600
C1773       C  0.63723600  0.08931441  0.59948955    -0.53000
C1774       C  0.66903057  0.10006986  0.59488234     0.11100
H1775       H  0.62234655  0.11512218  0.68237086     0.15600
H1776       H  0.70045019  0.14535627  0.60491734     0.01400
H1777       H  0.59445512  0.15707160  0.58451729     0.16000
H1778       H  0.62824818  0.06543626  0.58962004     0.15700
C1779       C  0.61321030  0.11349961  0.87781478     0.87500
C1780       C  0.63610583  0.08951142  0.89780044    -0.52700
C1781       C  0.66741967  0.10128291  0.90366485     0.10500
C1782       C  0.67252136  0.13726501  0.88952221     0.21400
C1783       C  0.61323311  0.14507280  0.90134230    -0.53400
C1784       C  0.64420696  0.15774322  0.90815890     0.10600
C1785       C  0.63214190  0.12214053  0.84218345    -0.53000
C1786       C  0.66384741  0.13462092  0.84759806     0.11100
H1787       H  0.62738541  0.06548910  0.90748218     0.15600
H1788       H  0.69757270  0.14755252  0.89563526     0.01400
H1789       H  0.59082555  0.15520028  0.91379939     0.16000
H1790       H  0.62219219  0.11586383  0.81537379     0.15700
O1791       O  0.74326729  0.03886988  0.54200385    -0.73400
O1792       O  0.79655302  0.49659732  0.96500878    -0.73400
O1793       O  0.73980621  0.04446472  0.96579819    -0.73500
O1794       O  0.79166728  0.49988272  0.53875694    -0.73500
O1795       O  0.75527268  0.45785849  0.53659176    -0.73400
O1796       O  0.70323595  0.00254765  0.96694393    -0.73400
O1797       O  0.75983600  0.45479029  0.96473311    -0.73400
O1798       O  0.70663724  0.99700696  0.54169579    -0.73500
Ni1799     Ni  0.77046410  0.01772863  0.50595011     1.25400
Ni1800     Ni  0.73009515  0.47912667  0.49874779     1.25400
C1801       C  0.71568987  0.02599911  0.55248091     0.88800
C1802       C  0.78691713  0.46808910  0.95336458     0.88700
C1803       C  0.71252133  0.03112991  0.95514176     0.88800
C1804       C  0.78205234  0.47095515  0.54908114     0.88900
N1805       N  0.85064607  0.25521072  0.94123463    -0.35600
N1806       N  0.84570484  0.30195940  0.50111055    -0.56100
N1807       N  0.84985798  0.25285400  0.55859207    -0.35600
N1808       N  0.86032593  0.20202569  0.50154972    -0.56100
C1809       C  0.86222282  0.28301887  0.92424568     0.28000
C1810       C  0.86539441  0.22877459  0.92469962     0.28000
C1811       C  0.85933104  0.28148544  0.57541514     0.28000
C1812       C  0.86640576  0.22761361  0.57502781     0.28000
C1813       C  0.84563576  0.32568835  0.96933211     0.36600
C1814       C  0.83545993  0.31966724  0.53069028     0.36600
C1815       C  0.84798840  0.18503937  0.96753897     0.36600
C1816       C  0.85262002  0.18347426  0.53154445     0.36600
C1817       C  0.88501506  0.27426784  0.89744962    -0.20800
C1818       C  0.88790956  0.24026803  0.89896505    -0.20800
C1819       C  0.88259521  0.27444043  0.60236097    -0.20800
C1820       C  0.88782599  0.24061390  0.60105872    -0.20800
C1821       C  0.84359864  0.35837144  0.98082774    -0.21900
C1822       C  0.81891495  0.34778954  0.51918993    -0.21900
C1823       C  0.83461210  0.15465357  0.97811556    -0.21900
C1824       C  0.83925344  0.15329332  0.52045648    -0.21900
C1825       C  0.85308366  0.31607158  0.93275642    -0.17200
C1826       C  0.85769353  0.19475742  0.93143309    -0.17200
C1827       C  0.86063857  0.19335478  0.56807348    -0.17200
C1828       C  0.84657409  0.31332675  0.56680588    -0.17200
H1829       H  0.89959854  0.29058516  0.88011858     0.15700
H1830       H  0.90629687  0.22593598  0.88482720     0.15700
H1831       H  0.89545045  0.29168722  0.62021803     0.15700
H1832       H  0.90657114  0.22740947  0.61604616     0.15700
H1833       H  0.84703840  0.38053062  0.96490090     0.13900
H1834       H  0.80782320  0.36663971  0.53575862     0.13900
H1835       H  0.82636390  0.13463192  0.96042859     0.13900
H1836       H  0.83025147  0.13333545  0.53779229     0.13900
H1837       H  0.83162067  0.25418705  0.96076472     0.27200
H1838       H  0.83086408  0.25031148  0.53914893     0.27200
N1839       N  0.74502967  0.34893428  0.69286429    -0.35600
N1840       N  0.69507566  0.34313555  0.75095882    -0.56100
N1841       N  0.74626211  0.34815956  0.80772202    -0.35600
N1842       N  0.79663466  0.35633186  0.74949288    -0.56100
C1843       C  0.71671947  0.35882083  0.67554874     0.28000
C1844       C  0.77084095  0.36459989  0.67597388     0.28000
C1845       C  0.71842707  0.35773338  0.82620607     0.28000
C1846       C  0.77258930  0.36320908  0.82432577     0.28000
C1847       C  0.67457327  0.34160596  0.72123784     0.36600
C1848       C  0.67514820  0.34168383  0.78115761     0.36600
C1849       C  0.81516991  0.34981124  0.71917152     0.36600
C1850       C  0.81574907  0.34914859  0.77914601     0.36600
C1851       C  0.72456288  0.38125860  0.64806428    -0.20800
C1852       C  0.75835690  0.38583203  0.64955684    -0.20800
C1853       C  0.72710601  0.37915167  0.85434440    -0.20800
C1854       C  0.76084172  0.38360007  0.85198277    -0.20800
C1855       C  0.64191694  0.33939045  0.73289302    -0.21900
C1856       C  0.64228080  0.33957418  0.77022899    -0.21900
C1857       C  0.84576898  0.33694506  0.72960771    -0.21900
C1858       C  0.84612248  0.33649435  0.76757049    -0.21900
C1859       C  0.68387633  0.34894962  0.68447353    -0.17200
C1860       C  0.80523481  0.35894052  0.68303491    -0.17200
C1861       C  0.80679291  0.35788292  0.81572973    -0.17200
C1862       C  0.68523398  0.34868359  0.81776754    -0.17200
H1863       H  0.70769661  0.39460882  0.63021228     0.15700
H1864       H  0.77179749  0.40443272  0.63472192     0.15700
H1865       H  0.71080930  0.39202022  0.87325090     0.15700
H1866       H  0.77458244  0.40167829  0.86722483     0.15700
H1867       H  0.61963914  0.34220814  0.71701273     0.13900
H1868       H  0.62032876  0.34266830  0.78651805     0.13900
H1869       H  0.86587081  0.32897270  0.71186717     0.13900
H1870       H  0.86658670  0.32818592  0.78459934     0.13900
H1871       H  0.74687130  0.33052305  0.71301374     0.27200
H1872       H  0.74750692  0.33042434  0.78680047     0.27200
C1873       C  0.61473210  0.38363869  0.87823873     0.87500
C1874       C  0.62367963  0.36390724  0.91322599    -0.52700
C1875       C  0.63613348  0.33239074  0.90669576     0.10500
C1876       C  0.63838108  0.32472824  0.86457075     0.21400
C1877       C  0.64611353  0.38421046  0.85442701    -0.53400
C1878       C  0.65869990  0.35344386  0.84670066     0.10600
C1879       C  0.59052872  0.36121314  0.85781556    -0.53000
C1880       C  0.60233643  0.33014758  0.85082553     0.11100
H1881       H  0.61783567  0.37322756  0.94043614     0.15600
H1882       H  0.64863358  0.29986583  0.85764125     0.01400
H1883       H  0.65614737  0.40687332  0.84243407     0.16000
H1884       H  0.56640052  0.37006049  0.84858926     0.15700
C1885       C  0.61142492  0.38260359  0.62590119     0.87500
C1886       C  0.64314085  0.38379347  0.64915132    -0.52700
C1887       C  0.65674991  0.35331743  0.65615888     0.10500
C1888       C  0.63696381  0.32422839  0.63828361     0.21400
C1889       C  0.62044752  0.36360762  0.59049711    -0.53400
C1890       C  0.63381057  0.33242204  0.59637324     0.10600
C1891       C  0.58817205  0.35919738  0.64643323    -0.53000
C1892       C  0.60101107  0.32837727  0.65274981     0.11100
H1893       H  0.65270008  0.40659182  0.66128435     0.15600
H1894       H  0.64798151  0.29954518  0.64456080     0.01400
H1895       H  0.61402272  0.37306021  0.56350179     0.16000
H1896       H  0.56390814  0.36715535  0.65625159     0.15700
C1897       C  0.88418277  0.11788076  0.63073850     0.87500
C1898       C  0.85166634  0.11853714  0.65267683    -0.52700
C1899       C  0.83905802  0.14978091  0.65833326     0.10500
C1900       C  0.86092794  0.17759724  0.64080355     0.21400
C1901       C  0.87710350  0.13662890  0.59458021    -0.53400
C1902       C  0.86486354  0.16840136  0.59929434     0.10600
C1903       C  0.90761348  0.14049720  0.65185623    -0.53000
C1904       C  0.89628426  0.17203967  0.65677260     0.11100
H1905       H  0.84060664  0.09632873  0.66458764     0.15600
H1906       H  0.85090017  0.20291781  0.64587478     0.01400
H1907       H  0.88365080  0.12637720  0.56796848     0.16000
H1908       H  0.93125293  0.13158160  0.66242893     0.15700
C1909       C  0.88299941  0.11834262  0.87095201     0.87500
C1910       C  0.87484154  0.13768929  0.90640723    -0.52700
C1911       C  0.86274129  0.16937747  0.90066772     0.10500
C1912       C  0.86009753  0.17788859  0.85881526     0.21400
C1913       C  0.85116398  0.11865950  0.84779475    -0.53400
C1914       C  0.83873764  0.14979143  0.84103637     0.10600
C1915       C  0.90716230  0.14059743  0.85030291    -0.53000
C1916       C  0.89591880  0.17199925  0.84419543     0.11100
H1917       H  0.88068635  0.12787896  0.93341268     0.15600
H1918       H  0.85030917  0.20316997  0.85295517     0.01400
H1919       H  0.84031104  0.09624040  0.83614296     0.16000
H1920       H  0.93121577  0.13162456  0.84095975     0.15700
O1921       O  0.95709446  0.24485611  0.78816888    -0.73400
O1922       O  0.50289126  0.29176088  0.71469553    -0.73400
O1923       O  0.95661131  0.24464257  0.71491229    -0.73500
O1924       O  0.50306018  0.29406943  0.78868825    -0.73500
O1925       O  0.54490214  0.25747339  0.78975572    -0.73400
O1926       O  0.99759112  0.20706480  0.71472774    -0.73400
O1927       O  0.54494543  0.25541838  0.71628185    -0.73400
O1928       O  0.99823305  0.20745882  0.78853650    -0.73500
Ni1929     Ni  0.97872016  0.27076136  0.75130811     1.25400
Ni1930     Ni  0.52377139  0.22988402  0.75401725     1.25400
C1931       C  0.96956994  0.21739051  0.79940473     0.88800
C1932       C  0.53155445  0.28199374  0.70371738     0.88700
C1933       C  0.96899918  0.21709314  0.70378527     0.88800
C1934       C  0.53172618  0.28485285  0.80025829     0.88900
N1935       N  0.74919839  0.15093226  0.69206204    -0.35600
N1936       N  0.69825117  0.13998535  0.74973579    -0.56100
N1937       N  0.74898550  0.15093777  0.80673958    -0.35600
N1938       N  0.79852956  0.15715531  0.74936439    -0.56100
C1939       C  0.72435696  0.13331517  0.67608980     0.28000
C1940       C  0.77809786  0.14213302  0.67518211     0.28000
C1941       C  0.72375517  0.13464858  0.82381686     0.28000
C1942       C  0.77782524  0.14217185  0.82381025     0.28000
C1943       C  0.67947188  0.14613541  0.71943251     0.36600
C1944       C  0.67925683  0.14690570  0.77968627     0.36600
C1945       C  0.81569124  0.16772323  0.71950642     0.36600
C1946       C  0.81592294  0.16716360  0.77927759     0.36600
C1947       C  0.73795756  0.11204616  0.65029452    -0.20800
C1948       C  0.77156921  0.11845457  0.64853204    -0.20800
C1949       C  0.73707705  0.11420993  0.85061333    -0.20800
C1950       C  0.77088896  0.11972131  0.85159447    -0.20800
C1951       C  0.64868929  0.15837326  0.73019583    -0.21900
C1952       C  0.64856839  0.15889490  0.76823279    -0.21900
C1953       C  0.84318359  0.18560552  0.73062868    -0.21900
C1954       C  0.84343542  0.18511918  0.76829041    -0.21900
C1955       C  0.68983516  0.13801480  0.68297275    -0.17200
C1956       C  0.80981164  0.15553712  0.68367023    -0.17200
C1957       C  0.80977644  0.15505414  0.81511458    -0.17200
C1958       C  0.68922207  0.13952560  0.81652729    -0.17200
H1959       H  0.72529271  0.09273646  0.63560914     0.15700
H1960       H  0.78904112  0.10604147  0.63057432     0.15700
H1961       H  0.72418771  0.09591477  0.86656889     0.15700
H1962       H  0.78819261  0.10770251  0.87006739     0.15700
H1963       H  0.62847657  0.16641825  0.71267314     0.13900
H1964       H  0.62822028  0.16737829  0.78531914     0.13900
H1965       H  0.86117939  0.19771519  0.71367698     0.13900
H1966       H  0.86176232  0.19667977  0.78530794     0.13900
H1967       H  0.74617391  0.16995871  0.71131756     0.27200
H1968       H  0.74627468  0.16930080  0.78667651     0.27200
C1969       C  0.91664184  0.19769266  0.82556250    -0.15400
C1970       C  0.95005729  0.19538706  0.82324611    -0.30600
H1971       H  0.90427833  0.21938718  0.81421292     0.13600
H1972       H  0.96335593  0.17502429  0.83612249     0.14200
C1973       C  0.94976580  0.19515580  0.67965601    -0.15400
C1974       C  0.91656452  0.19804488  0.67550889    -0.30600
H1975       H  0.96321191  0.17440710  0.66777890     0.13600
H1976       H  0.90413846  0.22019845  0.68564389     0.14200
C1977       C  0.58286562  0.30263221  0.67422360    -0.15400
C1978       C  0.54946098  0.30295260  0.67734321    -0.30600
H1979       H  0.59741477  0.28379920  0.68839118     0.13600
H1980       H  0.53472187  0.32117105  0.66255112     0.14200
C1981       C  0.54996099  0.30702812  0.82506896    -0.15400
C1982       C  0.58321858  0.30514377  0.82936558    -0.30600
H1983       H  0.53563956  0.32653643  0.83822433     0.13600
H1984       H  0.59708119  0.28503438  0.81655030     0.14200
C1985       C  0.69292543  0.08216850  0.92443770    -0.15400
C1986       C  0.69051035  0.04908371  0.92989435    -0.30600
H1987       H  0.71353188  0.09599968  0.93635392     0.13600
H1988       H  0.67057736  0.03473938  0.91752991     0.14200
C1989       C  0.69261221  0.04557543  0.57510460    -0.15400
C1990       C  0.69514543  0.07897602  0.57758409    -0.30600
H1991       H  0.67154048  0.03245074  0.58685961     0.13600
H1992       H  0.71740475  0.09113307  0.56726762     0.14200
C1993       C  0.80166661  0.41872944  0.57723192    -0.15400
C1994       C  0.80372509  0.45206707  0.57392789    -0.30600
H1995       H  0.78024905  0.40583841  0.56584362     0.13600
H1996       H  0.82378859  0.46583691  0.58682152     0.14200
C1997       C  0.80699830  0.41695806  0.92323023    -0.15400
C1998       C  0.80827546  0.45026022  0.92733811    -0.30600
H1999       H  0.78773766  0.40266195  0.93707401     0.13600
H2000       H  0.82689803  0.46499438  0.91315511     0.14200
C2001       C  0.59502555  0.41517319  0.62153586    -0.12200
C2002       C  0.57602202  0.43850096  0.62306490    -0.13800
C2003       C  0.58134327  0.09862037  0.62288479    -0.12200
C2004       C  0.55828437  0.07919664  0.62206591    -0.13800
C2005       C  0.90000308  0.08487353  0.62734432    -0.12200
C2006       C  0.91977920  0.06213146  0.62856593    -0.13800
C2007       C  0.93745561  0.42201020  0.62639968    -0.12200
C2008       C  0.91434668  0.40266688  0.62765093    -0.13800
C2009       C  0.58021172  0.09769397  0.87391244    -0.12200
C2010       C  0.55705057  0.07840835  0.87562030    -0.13800
C2011       C  0.58013576  0.43981606  0.88111750    -0.12200
C2012       C  0.59916829  0.41654440  0.88303432    -0.13800
C2013       C  0.91691015  0.40407180  0.86516576    -0.12200
C2014       C  0.93973334  0.42365653  0.86677702    -0.13800
C2015       C  0.91760995  0.06202099  0.87527136    -0.12200
C2016       C  0.89842011  0.08527860  0.87570389    -0.13800
O2017       O  0.96373575  0.52790850  0.40988817    -0.73400
O2018       O  0.53986665  0.97138551  0.40723178    -0.73400
O2019       O  0.53169762  0.53773947  0.40188139    -0.73500
O2020       O  0.97424521  0.95969422  0.40446622    -0.73500
O2021       O  0.97364040  0.96309064  0.34324542    -0.73400
O2022       O  0.52823836  0.53651752  0.34067983    -0.73400
O2023       O  0.54079743  0.97272045  0.34590528    -0.73400
O2024       O  0.96091886  0.52764771  0.34863477    -0.73500
Ni2025     Ni  0.00296369  0.50101967  0.40992935     1.25400
Ni2026     Ni  0.50175853  0.00091407  0.34373102     1.25400
C2027       C  0.94943268  0.53664186  0.38011047     0.88800
C2028       C  0.55311897  0.96310326  0.37672803     0.88700
C2029       C  0.53943645  0.54956549  0.37015468     0.88800
C2030       C  0.96435128  0.94901618  0.37296494     0.88900
O2031       O  0.96758412  0.52912510  0.09617193    -0.73400
O2032       O  0.53900403  0.97206904  0.09563603    -0.73400
O2033       O  0.97147543  0.96117530  0.09670582    -0.73500
O2034       O  0.53294762  0.53853103  0.09868784    -0.73500
O2035       O  0.53234047  0.53857338  0.16005069    -0.73400
O2036       O  0.96996203  0.96117579  0.15801511    -0.73400
O2037       O  0.53678380  0.96992237  0.15686477    -0.73400
O2038       O  0.96696007  0.53025182  0.15747133    -0.73500
Ni2039     Ni  0.00479948  0.49917327  0.09512007     1.25400
Ni2040     Ni  0.49803279  0.99871804  0.15864913     1.25400
C2041       C  0.95544741  0.54005327  0.12632903     0.88800
C2042       C  0.55027445  0.96135763  0.12622848     0.88700
C2043       C  0.96146775  0.94852968  0.12724390     0.88800
C2044       C  0.54195965  0.55104189  0.12962465     0.88900
N2045       N  0.64643596  0.74607749  0.44190364    -0.35600
N2046       N  0.65745425  0.69731280  0.00128737    -0.56100
N2047       N  0.65017772  0.74630940  0.05825931    -0.35600
N2048       N  0.64011401  0.79726475  0.00108554    -0.56100
C2049       C  0.63732191  0.71778637  0.42414277     0.28000
C2050       C  0.63153090  0.77191052  0.42429810     0.28000
C2051       C  0.64153299  0.71748255  0.07530692     0.28000
C2052       C  0.63321395  0.77125695  0.07481045     0.28000
C2053       C  0.65515599  0.67560070  0.46970116     0.36600
C2054       C  0.66731527  0.67976535  0.03116153     0.36600
C2055       C  0.64692801  0.81579300  0.46790670     0.36600
C2056       C  0.64650984  0.81591033  0.03139242     0.36600
C2057       C  0.61604176  0.72562709  0.39552542    -0.20800
C2058       C  0.61147595  0.75945035  0.39663868    -0.20800
C2059       C  0.61843897  0.72414982  0.10257432    -0.20800
C2060       C  0.61242852  0.75781124  0.10121818    -0.20800
C2061       C  0.65817032  0.64292505  0.48097199    -0.21900
C2062       C  0.68529757  0.65232373  0.02012327    -0.20700
C2063       C  0.66101791  0.84583212  0.47852586    -0.21900
C2064       C  0.65890478  0.84666116  0.02075080    -0.21900
C2065       C  0.64771060  0.68510371  0.43304657    -0.17200
C2066       C  0.63744180  0.80622833  0.43162977    -0.17200
C2067       C  0.63818676  0.80570047  0.06779385    -0.17200
C2068       C  0.65514319  0.68586310  0.06698836    -0.17200
H2069       H  0.60389063  0.70879815  0.37660267     0.15700
H2070       H  0.59435407  0.77298895  0.37973949     0.15700
H2071       H  0.60637026  0.70683338  0.12100345     0.15700
H2072       H  0.59377831  0.77057887  0.11677239     0.15700
H2073       H  0.65551299  0.62076383  0.46493872     0.13900
H2074       H  0.69659292  0.63378213  0.03708654     0.13900
H2075       H  0.66975747  0.86571194  0.46092111     0.13900
H2076       H  0.66700366  0.86679894  0.03835195     0.13900
H2077       H  0.66432710  0.74789889  0.46263032     0.27200
H2078       H  0.66902018  0.74927174  0.03873203     0.27200
C2079       C  0.88470578  0.88644246  0.37476050     0.87500
C2080       C  0.88668323  0.85493714  0.39830370    -0.52700
C2081       C  0.85645749  0.84121083  0.40653502     0.10500
C2082       C  0.82675825  0.86065886  0.38944318     0.21400
C2083       C  0.86469266  0.87698651  0.34013540    -0.53400
C2084       C  0.83368549  0.86345476  0.34716669     0.10600
C2085       C  0.86176289  0.90969738  0.39587578    -0.53000
C2086       C  0.83118892  0.89672985  0.40356353     0.11100
H2087       H  0.90986307  0.84572717  0.40986593     0.15600
H2088       H  0.80232892  0.84950599  0.39672072     0.01400
H2089       H  0.87341945  0.88316444  0.31276528     0.16000
H2090       H  0.87003508  0.93401421  0.40511542     0.15700
C2091       C  0.88287143  0.88546731  0.12346858     0.87500
C2092       C  0.86356106  0.87692968  0.15891176    -0.52700
C2093       C  0.83184562  0.86471638  0.15312456     0.10500
C2094       C  0.82336575  0.86252774  0.11122391     0.21400
C2095       C  0.88257221  0.85388798  0.09991204    -0.53400
C2096       C  0.85142560  0.84145970  0.09315461     0.10600
C2097       C  0.86053708  0.90978132  0.10320962    -0.53000
C2098       C  0.82911603  0.89854160  0.09703413     0.11100
H2099       H  0.87346336  0.88256788  0.18592552     0.15600
H2100       H  0.79823200  0.85252535  0.10498649     0.01400
H2101       H  0.90497306  0.84338547  0.08784386     0.16000
H2102       H  0.86957662  0.93388942  0.09419380     0.15700
C2103       C  0.62018851  0.61366527  0.12540182     0.87500
C2104       C  0.63969942  0.62319809  0.16024933    -0.52700
C2105       C  0.67120356  0.63545024  0.15366172     0.10500
C2106       C  0.67924075  0.63691088  0.11154620     0.21400
C2107       C  0.61978159  0.64458576  0.10097388    -0.53400
C2108       C  0.65064688  0.65724419  0.09339208     0.10600
C2109       C  0.64246913  0.58909744  0.10544671    -0.53000
C2110       C  0.67362192  0.60061657  0.09819820     0.11100
H2111       H  0.63014979  0.61810039  0.18756152     0.15600
H2112       H  0.70427583  0.64696692  0.10486620     0.01400
H2113       H  0.59705956  0.65470245  0.08922932     0.16000
H2114       H  0.63351355  0.56472932  0.09721757     0.15700
C2115       C  0.61787073  0.61307256  0.37157859     0.87500
C2116       C  0.64041740  0.58975535  0.39303169    -0.52700
C2117       C  0.67073089  0.60274045  0.40147573     0.10500
C2118       C  0.67527273  0.63904896  0.38817151     0.21400
C2119       C  0.61511348  0.64436386  0.39527313    -0.53400
C2120       C  0.64502966  0.65821920  0.40435385     0.10600
C2121       C  0.63868551  0.62296368  0.33762909    -0.53000
C2122       C  0.66945013  0.63665625  0.34580381     0.11100
H2123       H  0.63230580  0.56518689  0.40171621     0.15600
H2124       H  0.69939077  0.65031890  0.39638758     0.01400
H2125       H  0.59159944  0.65350291  0.40607813     0.16000
H2126       H  0.63065303  0.61709294  0.30992303     0.15700
O2127       O  0.74591088  0.54149175  0.03871877    -0.73400
O2128       O  0.79481533  0.99377504  0.46936535    -0.73400
O2129       O  0.74371911  0.54554700  0.46339537    -0.73500
O2130       O  0.79262317  0.99932889  0.03736082    -0.73500
O2131       O  0.75583426  0.95762564  0.03900064    -0.73400
O2132       O  0.70770249  0.50321221  0.46074485    -0.73400
O2133       O  0.75824292  0.95185577  0.46859080    -0.73400
O2134       O  0.70927037  0.49962928  0.03858934    -0.73500
Ni2135     Ni  0.77263912  0.52047608  0.00206569     1.25400
Ni2136     Ni  0.72810757  0.97861986  0.00320833     1.25400
C2137       C  0.71862461  0.52837912  0.04978161     0.88800
C2138       C  0.78541082  0.96525642  0.45754253     0.88700
C2139       C  0.71720120  0.53220908  0.45055134     0.88800
C2140       C  0.78348997  0.97066880  0.04902170     0.88900
N2141       N  0.85214402  0.75363839  0.44502928    -0.35600
N2142       N  0.84291742  0.80224511  0.00079756    -0.56100
N2143       N  0.84740350  0.75244429  0.05792576    -0.35600
N2144       N  0.85665953  0.70225425  0.99935998    -0.56100
C2145       C  0.86250314  0.78159891  0.42730325     0.28000
C2146       C  0.86771789  0.72746079  0.42878494     0.28000
C2147       C  0.85800355  0.78084048  0.07455059     0.28000
C2148       C  0.86481319  0.72693321  0.07273841     0.28000
C2149       C  0.84662425  0.82452303  0.47242825     0.36600
C2150       C  0.83384337  0.81988732  0.03092422     0.36600
C2151       C  0.85178041  0.68383324  0.47240166     0.36600
C2152       C  0.85066696  0.68291495  0.02915728     0.36600
C2153       C  0.88523896  0.77317836  0.40032688    -0.20800
C2154       C  0.88951808  0.73937598  0.40258722    -0.20800
C2155       C  0.88267026  0.77332291  0.09974170    -0.20800
C2156       C  0.88789851  0.73958799  0.09711701    -0.20800
C2157       C  0.84519330  0.85730976  0.48380313    -0.21900
C2158       C  0.81754657  0.84840137  0.02023594    -0.21900
C2159       C  0.83797768  0.65375315  0.48341271    -0.21900
C2160       C  0.83934893  0.65196092  0.01793647    -0.21900
C2161       C  0.85289363  0.81462643  0.43562219    -0.17200
C2162       C  0.86140517  0.69322468  0.43612035    -0.17200
C2163       C  0.85911769  0.69266222  0.06547369    -0.17200
C2164       C  0.84575083  0.81304966  0.06666776    -0.17200
H2165       H  0.89896001  0.78967558  0.38236673     0.15700
H2166       H  0.90802431  0.72535960  0.38814542     0.15700
H2167       H  0.89698974  0.79026474  0.11655212     0.15700
H2168       H  0.90849856  0.72641657  0.10881448     0.15700
H2169       H  0.84802516  0.87937800  0.46755995     0.13900
H2170       H  0.80716109  0.86723412  0.03730859     0.13900
H2171       H  0.82914942  0.63376568  0.46602092     0.13900
H2172       H  0.83237711  0.63114838  0.03518542     0.13900
H2173       H  0.83351628  0.75227104  0.46498927     0.27200
H2174       H  0.82760802  0.75027404  0.03943270     0.27200
N2175       N  0.74661054  0.84769420  0.19321459    -0.35600
N2176       N  0.69712525  0.84339688  0.25081187    -0.56100
N2177       N  0.74721979  0.84709669  0.30833300    -0.35600
N2178       N  0.79776727  0.85612580  0.25061522    -0.56100
C2179       C  0.71802308  0.85696699  0.17601807     0.28000
C2180       C  0.77205033  0.86397981  0.17659157     0.28000
C2181       C  0.71873962  0.85644087  0.32582057     0.28000
C2182       C  0.77307597  0.86238859  0.32545058     0.28000
C2183       C  0.67913152  0.83406507  0.22101857     0.36600
C2184       C  0.67939455  0.83396709  0.28077745     0.36600
C2185       C  0.81642312  0.84977974  0.22025104     0.36600
C2186       C  0.81680668  0.84906951  0.28047409     0.36600
C2187       C  0.72529414  0.87952723  0.14848782    -0.20800
C2188       C  0.75906532  0.88486466  0.15003905    -0.20800
C2189       C  0.72657758  0.87796950  0.35418191    -0.20800
C2190       C  0.76050654  0.88254295  0.35295662    -0.20800
C2191       C  0.65066476  0.81793844  0.23229323    -0.21900
C2192       C  0.65077123  0.81780235  0.26986666    -0.21900
C2193       C  0.84705288  0.83707971  0.23091119    -0.21900
C2194       C  0.84730596  0.83665853  0.26893448    -0.21900
C2195       C  0.68584794  0.84502533  0.18482441    -0.17200
C2196       C  0.80648949  0.85873844  0.18386917    -0.17200
C2197       C  0.80747498  0.85731904  0.31727541    -0.17200
C2198       C  0.68619051  0.84526237  0.31675434    -0.17200
H2199       H  0.70817701  0.89204927  0.13020566     0.15700
H2200       H  0.77216882  0.90349116  0.13486191     0.15700
H2201       H  0.70979352  0.89018325  0.37308354     0.15700
H2202       H  0.77388944  0.90029304  0.36910048     0.15700
H2203       H  0.63173421  0.80740462  0.21553330     0.13900
H2204       H  0.63180970  0.80706299  0.28681362     0.13900
H2205       H  0.86722963  0.82907419  0.21329317     0.13900
H2206       H  0.86774751  0.82837211  0.28601051     0.13900
H2207       H  0.74894231  0.82914740  0.21316461     0.27200
H2208       H  0.74917971  0.82918439  0.28765053     0.27200
C2209       C  0.61471789  0.88478629  0.37285208     0.87500
C2210       C  0.62138296  0.86415128  0.40776546    -0.52700
C2211       C  0.63195539  0.83201580  0.40123459     0.10500
C2212       C  0.63400393  0.82439151  0.35909037     0.21400
C2213       C  0.64664107  0.88322760  0.34999516    -0.53400
C2214       C  0.65726732  0.85161462  0.34246950     0.10600
C2215       C  0.58940447  0.86467181  0.35141184    -0.53000
C2216       C  0.59836101  0.83273821  0.34461108     0.11100
H2217       H  0.61607761  0.87379437  0.43497248     0.15600
H2218       H  0.64262997  0.79894731  0.35219968     0.01400
H2219       H  0.65891878  0.90525787  0.33917293     0.16000
H2220       H  0.56613553  0.87557601  0.34225560     0.15700
C2221       C  0.61256280  0.88151208  0.12909372     0.87500
C2222       C  0.64463804  0.88134191  0.15182644    -0.52700
C2223       C  0.65728139  0.85026809  0.15840436     0.10500
C2224       C  0.63617024  0.82204905  0.14055226     0.21400
C2225       C  0.62040729  0.86237313  0.09343397    -0.53400
C2226       C  0.63294800  0.83076810  0.09879948     0.10600
C2227       C  0.58896155  0.85889170  0.14991879    -0.53000
C2228       C  0.60046856  0.82741828  0.15542544     0.11100
H2229       H  0.65533639  0.90376919  0.16362695     0.15600
H2230       H  0.64634023  0.79692175  0.14635673     0.01400
H2231       H  0.61396149  0.87223862  0.06662696     0.16000
H2232       H  0.56507759  0.86771713  0.15997854     0.15700
C2233       C  0.89143502  0.62005275  0.12706671     0.87500
C2234       C  0.86000148  0.61697962  0.15072846    -0.52700
C2235       C  0.84410683  0.64650916  0.15683691     0.10500
C2236       C  0.86092666  0.67646402  0.13750238     0.21400
C2237       C  0.88054674  0.63724312  0.09104384    -0.53400
C2238       C  0.86486127  0.66746911  0.09608841     0.10600
C2239       C  0.91258996  0.64618419  0.14659530    -0.53000
C2240       C  0.89679430  0.67591306  0.15181817     0.11100
H2241       H  0.85244973  0.59392457  0.16394786     0.15600
H2242       H  0.84792130  0.70039819  0.14274273     0.01400
H2243       H  0.88770852  0.62783496  0.06424124     0.16000
H2244       H  0.93751979  0.64091956  0.15659881     0.15700
C2245       C  0.88744402  0.61501319  0.37837407     0.87500
C2246       C  0.87840351  0.63525984  0.41292737    -0.52700
C2247       C  0.86789462  0.66739969  0.40593964     0.10500
C2248       C  0.86798681  0.67532669  0.36366035     0.21400
C2249       C  0.85682884  0.61634997  0.35330467    -0.53400
C2250       C  0.84604962  0.64785358  0.34545616     0.10600
C2251       C  0.91366811  0.63583622  0.35924218    -0.53000
C2252       C  0.90444700  0.66735594  0.35145544     0.11100
H2253       H  0.88252241  0.62549875  0.44031644     0.15600
H2254       H  0.85931899  0.70063161  0.35630382     0.01400
H2255       H  0.84536349  0.59426128  0.34159556     0.16000
H2256       H  0.93823543  0.62620250  0.35233163     0.15700
O2257       O  0.94190024  0.76437954  0.28256096    -0.73400
O2258       O  0.49800094  0.80023179  0.20968130    -0.73400
O2259       O  0.94826118  0.75760208  0.20963364    -0.73500
O2260       O  0.49468134  0.80657581  0.28327757    -0.73500
O2261       O  0.52974459  0.76405881  0.29108422    -0.73400
O2262       O  0.98671681  0.71779081  0.21583254    -0.73400
O2263       O  0.53587481  0.76020970  0.21798404    -0.73400
O2264       O  0.97740237  0.72206947  0.28887930    -0.73500
Ni2265     Ni  0.96949692  0.78464834  0.24642518     1.25400
Ni2266     Ni  0.50816451  0.73876624  0.25391812     1.25400
C2267       C  0.94927659  0.73608227  0.29612022     0.88800
C2268       C  0.52597650  0.78687199  0.20200169     0.88700
C2269       C  0.96054436  0.72924560  0.20069801     0.88800
C2270       C  0.52094247  0.79393965  0.29790359     0.88900
N2271       N  0.75679712  0.65052462  0.19389282    -0.35600
N2272       N  0.70597535  0.64458740  0.25046027    -0.56100
N2273       N  0.75690222  0.65371244  0.30880557    -0.35600
N2274       N  0.80687645  0.65737203  0.25188995    -0.56100
C2275       C  0.73090060  0.63508913  0.17709136     0.28000
C2276       C  0.78498494  0.63961690  0.17730691     0.28000
C2277       C  0.73067724  0.63879026  0.32578460     0.28000
C2278       C  0.78502786  0.64474424  0.32729856     0.28000
C2279       C  0.68726716  0.65121928  0.22024318     0.36600
C2280       C  0.68728670  0.65229324  0.28028687     0.36600
C2281       C  0.82675603  0.65980424  0.22181983     0.36600
C2282       C  0.82672184  0.66255003  0.28162239     0.36600
C2283       C  0.74312369  0.61302996  0.15130452    -0.20800
C2284       C  0.77707565  0.61669479  0.15035559    -0.20800
C2285       C  0.74279902  0.61931279  0.35407827    -0.20800
C2286       C  0.77658730  0.62402670  0.35613001    -0.20800
C2287       C  0.65703083  0.66474640  0.23092614    -0.21900
C2288       C  0.65703080  0.66539291  0.26891064    -0.21900
C2289       C  0.85896476  0.66652585  0.23285522    -0.21900
C2290       C  0.85881094  0.66894051  0.27014035    -0.21900
C2291       C  0.69675856  0.64162455  0.18403490    -0.17200
C2292       C  0.81759870  0.65007865  0.18570176    -0.17200
C2293       C  0.81815466  0.65408020  0.31820811    -0.17200
C2294       C  0.69629952  0.64355240  0.31690118    -0.17200
H2295       H  0.72938495  0.59457347  0.13654793     0.15700
H2296       H  0.79399720  0.60273449  0.13311172     0.15700
H2297       H  0.72933744  0.60164372  0.37007805     0.15700
H2298       H  0.79301665  0.61194174  0.37551258     0.15700
H2299       H  0.63691514  0.67295315  0.21334563     0.13900
H2300       H  0.63684604  0.67407918  0.28613026     0.13900
H2301       H  0.88132244  0.66528878  0.21705619     0.13900
H2302       H  0.88082251  0.67118120  0.28650354     0.13900
H2303       H  0.75515086  0.66960247  0.21330520     0.27200
H2304       H  0.75534441  0.67096806  0.28744373     0.27200
C2305       C  0.92954068  0.68884947  0.33277484    -0.15400
C2306       C  0.92373401  0.71894649  0.31855128    -0.30600
H2307       H  0.95424318  0.67824839  0.32908757     0.13600
H2308       H  0.89928154  0.73023862  0.32113238     0.14200
C2309       C  0.94472865  0.70795769  0.17356382    -0.15400
C2310       C  0.91174220  0.70406486  0.17221687    -0.30600
H2311       H  0.96096475  0.69139267  0.15826007     0.13600
H2312       H  0.89544390  0.72091786  0.18712641     0.14200
C2313       C  0.57996064  0.80167569  0.17427615    -0.15400
C2314       C  0.54671561  0.80436234  0.17534808    -0.30600
H2315       H  0.59197287  0.78085606  0.18785603     0.13600
H2316       H  0.53414851  0.82334764  0.15932759     0.14200
C2317       C  0.54227227  0.81492541  0.32128375    -0.15400
C2318       C  0.57530072  0.80895973  0.32569426    -0.30600
H2319       H  0.53070448  0.83705520  0.33242443     0.13600
H2320       H  0.58578247  0.78603746  0.31494818     0.14200
C2321       C  0.69569905  0.58414056  0.42354494    -0.15400
C2322       C  0.69605235  0.55064444  0.42482685    -0.30600
H2323       H  0.71385526  0.59841588  0.43911184     0.13600
H2324       H  0.67846684  0.53615010  0.40881477     0.14200
C2325       C  0.69628893  0.54707768  0.07410153    -0.15400
C2326       C  0.69915311  0.58023550  0.07879854    -0.30600
H2327       H  0.67556911  0.53335191  0.08570020     0.13600
H2328       H  0.72106833  0.59289068  0.06827810     0.14200
C2329       C  0.80329232  0.91903067  0.07821097    -0.15400
C2330       C  0.80643745  0.95204119  0.07271195    -0.30600
H2331       H  0.78089284  0.90653110  0.06873224     0.13600
H2332       H  0.82768233  0.96566824  0.08322987     0.14200
C2333       C  0.80598330  0.91463782  0.42620048    -0.15400
C2334       C  0.80717413  0.94780121  0.43150941    -0.30600
H2335       H  0.78652478  0.89998089  0.43922114     0.13600
H2336       H  0.82603596  0.96284317  0.41814215     0.14200
C2337       C  0.59669837  0.91450108  0.12484571    -0.12200
C2338       C  0.57750095  0.93779587  0.12556473    -0.13800
C2339       C  0.58742306  0.59826107  0.13106046    -0.12200
C2340       C  0.56455852  0.57874939  0.13068919    -0.13800
C2341       C  0.91034386  0.58850049  0.12356150    -0.12200
C2342       C  0.92944501  0.56506831  0.12477575    -0.13800
C2343       C  0.93885293  0.92057546  0.12753089    -0.12200
C2344       C  0.91592451  0.90096990  0.12811713    -0.13800
C2345       C  0.58569402  0.59628147  0.36535292    -0.12200
C2346       C  0.56263010  0.57689003  0.36701139    -0.13800
C2347       C  0.58145438  0.94120534  0.37762528    -0.12200
C2348       C  0.60096550  0.91832427  0.37829039    -0.13800
C2349       C  0.91718855  0.90303394  0.36925030    -0.12200
C2350       C  0.94067432  0.92198855  0.37052592    -0.13800
C2351       C  0.92101017  0.55854492  0.38252145    -0.12200
C2352       C  0.90148170  0.58148367  0.38389386    -0.13800
O2353       O  0.96218127  0.52903752  0.90551309    -0.73400
O2354       O  0.53397125  0.97172961  0.90949363    -0.73400
O2355       O  0.52811608  0.53858075  0.90821623    -0.73500
O2356       O  0.96721534  0.96242697  0.90479346    -0.73500
O2357       O  0.96772281  0.96223886  0.84344569    -0.73400
O2358       O  0.53076861  0.53914322  0.84694090    -0.73400
O2359       O  0.53484883  0.97112521  0.84816673    -0.73400
O2360       O  0.96422045  0.53136061  0.84427081    -0.73500
Ni2361     Ni  0.99994807  0.50021863  0.90783041     1.25400
Ni2362     Ni  0.49623214  0.99985495  0.84490627     1.25400
C2363       C  0.95077833  0.53973679  0.87500279     0.88800
C2364       C  0.54683354  0.96191274  0.87929916     0.88700
C2365       C  0.53882668  0.55136852  0.87804926     0.88800
C2366       C  0.95806661  0.94984827  0.87393789     0.88900
O2367       O  0.96029812  0.52917736  0.59519668    -0.73400
O2368       O  0.53588640  0.97160916  0.59079267    -0.73400
O2369       O  0.96942447  0.96236886  0.60145067    -0.73500
O2370       O  0.52526452  0.53886917  0.59771550    -0.73500
O2371       O  0.52534751  0.53740501  0.65903468    -0.73400
O2372       O  0.97309300  0.96463588  0.66260205    -0.73400
O2373       O  0.53917135  0.97171376  0.65201968    -0.73400
O2374       O  0.96047343  0.52843215  0.65652838    -0.73500
Ni2375     Ni  0.99854382  0.50095378  0.59250246     1.25400
Ni2376     Ni  0.50029090  0.99991726  0.65683591     1.25400
C2377       C  0.94785662  0.53819567  0.62590548     0.88800
C2378       C  0.55013376  0.96239554  0.62046244     0.88700
C2379       C  0.96202449  0.95090978  0.63342679     0.88800
C2380       C  0.53460323  0.55073146  0.62886760     0.88900
N2381       N  0.65174364  0.74728407  0.94381416    -0.35600
N2382       N  0.65321965  0.69569953  0.49965704    -0.56100
N2383       N  0.64871609  0.74608507  0.55633399    -0.35600
N2384       N  0.64015578  0.79725606  0.49819407    -0.56100
C2385       C  0.64366642  0.71846370  0.92640880     0.28000
C2386       C  0.63541758  0.77232060  0.92652914     0.28000
C2387       C  0.63862396  0.71825615  0.57456051     0.28000
C2388       C  0.63380908  0.77250235  0.57278702     0.28000
C2389       C  0.66819216  0.68040876  0.97138656     0.36600
C2390       C  0.65530571  0.67552149  0.52959562     0.36600
C2391       C  0.64701013  0.81640822  0.97128902     0.36600
C2392       C  0.64840383  0.81581387  0.52796681     0.36600
C2393       C  0.62180905  0.72518363  0.89799896    -0.20800
C2394       C  0.61583134  0.75885117  0.89901410    -0.20800
C2395       C  0.61673875  0.72702204  0.60222749    -0.20800
C2396       C  0.61279226  0.76088509  0.59998551    -0.20800
C2397       C  0.68594016  0.65281719  0.98244048    -0.21900
C2398       C  0.65827288  0.64288836  0.51829040    -0.20700
C2399       C  0.65916541  0.84699496  0.98277215    -0.21900
C2400       C  0.66188716  0.84586662  0.51650299    -0.21900
C2401       C  0.65644190  0.68664863  0.93543145    -0.17200
C2402       C  0.63936287  0.80680760  0.93451894    -0.17200
C2403       C  0.64012723  0.80663610  0.56466271    -0.17200
C2404       C  0.64793981  0.68509222  0.56624547    -0.17200
H2405       H  0.61042650  0.70777424  0.87912852     0.15700
H2406       H  0.59772101  0.77144164  0.88259414     0.15700
H2407       H  0.60338228  0.71071511  0.62073456     0.15700
H2408       H  0.59465263  0.77488521  0.61486674     0.15700
H2409       H  0.69799921  0.63487105  0.96540509     0.13900
H2410       H  0.65586339  0.62072723  0.53431859     0.13900
H2411       H  0.66744967  0.86743803  0.96569478     0.13900
H2412       H  0.67118557  0.86585120  0.53361064     0.13900
H2413       H  0.66958930  0.75008617  0.96445811     0.27200
H2414       H  0.66687276  0.74732784  0.53582203     0.27200
C2415       C  0.87937742  0.88695169  0.87796572     0.87500
C2416       C  0.87989820  0.85550545  0.90162951    -0.52700
C2417       C  0.84906865  0.84247396  0.90867095     0.10500
C2418       C  0.82041829  0.86275123  0.89067471     0.21400
C2419       C  0.86020656  0.87786371  0.84272979    -0.53400
C2420       C  0.82883394  0.86505892  0.84880463     0.10600
C2421       C  0.85659659  0.91081615  0.89830539    -0.53000
C2422       C  0.82544525  0.89882846  0.90472459     0.11100
H2423       H  0.90259748  0.84536704  0.91339477     0.15600
H2424       H  0.79542500  0.85231603  0.89687022     0.01400
H2425       H  0.86985898  0.88347020  0.81557358     0.16000
H2426       H  0.86515452  0.93508554  0.90738813     0.15700
C2427       C  0.88528561  0.88551534  0.63166640     0.87500
C2428       C  0.86452239  0.87522525  0.66549774    -0.52700
C2429       C  0.83388014  0.86140670  0.65717767     0.10500
C2430       C  0.82815689  0.85907521  0.61477870     0.21400
C2431       C  0.88838358  0.85437751  0.60762314    -0.53400
C2432       C  0.85851001  0.84043074  0.59827318     0.10600
C2433       C  0.86251667  0.90868341  0.61025845    -0.53000
C2434       C  0.83246358  0.89527305  0.60150507     0.11100
H2435       H  0.87235955  0.88119633  0.69324817     0.15600
H2436       H  0.80403991  0.84774823  0.60660211     0.01400
H2437       H  0.91196269  0.84569298  0.59654783     0.16000
H2438       H  0.87029165  0.93340090  0.60168688     0.15700
C2439       C  0.61358669  0.61353094  0.62611386     0.87500
C2440       C  0.63336835  0.62234907  0.66109692    -0.52700
C2441       C  0.66483546  0.63499537  0.65464854     0.10500
C2442       C  0.67238035  0.63770409  0.61247595     0.21400
C2443       C  0.61274373  0.64515967  0.60264826    -0.53400
C2444       C  0.64342823  0.65813400  0.59495286     0.10600
C2445       C  0.63615011  0.58964347  0.60533469    -0.53000
C2446       C  0.66720644  0.60165821  0.59836493     0.11100
H2447       H  0.62410846  0.61622677  0.68826211     0.15600
H2448       H  0.69719642  0.64817641  0.60561155     0.01400
H2449       H  0.58994656  0.65511621  0.59091310     0.16000
H2450       H  0.62744069  0.56547346  0.59610238     0.15700
C2451       C  0.61859001  0.61314265  0.88154007     0.87500
C2452       C  0.64145507  0.58930871  0.90182526    -0.52700
C2453       C  0.67301703  0.60079680  0.90682024     0.10500
C2454       C  0.67834203  0.63642232  0.89154982     0.21400
C2455       C  0.61936816  0.64517245  0.90421457    -0.53400
C2456       C  0.65063980  0.65768938  0.90988713     0.10600
C2457       C  0.63700401  0.62095896  0.84539198    -0.53000
C2458       C  0.66878455  0.63327411  0.85000029     0.11100
H2459       H  0.63270205  0.56540580  0.91183003     0.15600
H2460       H  0.70362419  0.64657296  0.89672321     0.01400
H2461       H  0.59721248  0.65612861  0.91635907     0.16000
H2462       H  0.62650564  0.61478729  0.81879188     0.15700
O2463       O  0.74094712  0.54490742  0.53677223    -0.73400
O2464       O  0.78986337  0.99923777  0.96355051    -0.73400
O2465       O  0.74629147  0.54188720  0.96533634    -0.73500
O2466       O  0.79362921  0.99381679  0.54331832    -0.73500
O2467       O  0.75732912  0.95164273  0.54208632    -0.73400
O2468       O  0.70960743  0.50005458  0.96476781    -0.73400
O2469       O  0.75341011  0.95723897  0.96560404    -0.73400
O2470       O  0.70453481  0.50291238  0.53471147    -0.73500
Ni2471     Ni  0.76908397  0.52416028  0.50102396     1.25400
Ni2472     Ni  0.73112751  0.97291545  0.50508078     1.25400
C2473       C  0.71341139  0.53156617  0.54673435     0.88800
C2474       C  0.78010560  0.97043804  0.95302236     0.88700
C2475       C  0.71907534  0.52885850  0.95393857     0.88800
C2476       C  0.78422185  0.96497469  0.55398650     0.88900
N2477       N  0.84780699  0.75324682  0.94280171    -0.35600
N2478       N  0.84862796  0.80429606  0.50229305    -0.56100
N2479       N  0.85322244  0.75365442  0.55956890    -0.35600
N2480       N  0.85896579  0.70240004  0.50248319    -0.56100
C2481       C  0.85701391  0.78204190  0.92607681     0.28000
C2482       C  0.86446351  0.72818478  0.92603759     0.28000
C2483       C  0.86471105  0.78131065  0.57686182     0.28000
C2484       C  0.86805480  0.72718307  0.57587826     0.28000
C2485       C  0.83335770  0.82029149  0.97116607     0.36600
C2486       C  0.84812643  0.82443969  0.53229702     0.36600
C2487       C  0.85066074  0.68345114  0.96916160     0.36600
C2488       C  0.85145134  0.68382794  0.53248995     0.36600
C2489       C  0.88001032  0.77529207  0.89878292    -0.20800
C2490       C  0.88555774  0.74157398  0.89989175    -0.20800
C2491       C  0.88750702  0.77243164  0.60358178    -0.20800
C2492       C  0.89054317  0.73849309  0.60168281    -0.20800
C2493       C  0.81731138  0.84870024  0.98266824    -0.21900
C2494       C  0.84627548  0.85725441  0.52119529    -0.21900
C2495       C  0.83913425  0.65236110  0.97992490    -0.21900
C2496       C  0.83785001  0.65372289  0.52145035    -0.21900
C2497       C  0.84443583  0.81387490  0.93499319    -0.17200
C2498       C  0.85943934  0.69371497  0.93295222    -0.17200
C2499       C  0.86047919  0.69326905  0.56884206    -0.17200
C2500       C  0.85552567  0.81436529  0.56875022    -0.17200
H2501       H  0.89257853  0.79267347  0.88082798     0.15700
H2502       H  0.90432973  0.72875687  0.88459656     0.15700
H2503       H  0.90207210  0.78865885  0.62102077     0.15700
H2504       H  0.90910606  0.72409445  0.61544209     0.15700
H2505       H  0.80691269  0.86791660  0.96612649     0.13900
H2506       H  0.85017436  0.87923473  0.53735107     0.13900
H2507       H  0.83172712  0.63190655  0.96239859     0.13900
H2508       H  0.82905749  0.63369807  0.53882870     0.13900
H2509       H  0.82901749  0.75054433  0.96244231     0.27200
H2510       H  0.83421887  0.75270318  0.54002078     0.27200
N2511       N  0.74565484  0.84694289  0.69337246    -0.35600
N2512       N  0.69391109  0.84448072  0.75011514    -0.56100
N2513       N  0.74352370  0.85014267  0.80806447    -0.35600
N2514       N  0.79569510  0.85479147  0.75183310    -0.56100
C2515       C  0.71815436  0.85745607  0.67480796     0.28000
C2516       C  0.77257844  0.86105906  0.67681398     0.28000
C2517       C  0.71539520  0.86071995  0.82514392     0.28000
C2518       C  0.76947513  0.86567907  0.82468308     0.28000
C2519       C  0.67408529  0.84342933  0.71986526     0.36600
C2520       C  0.67325276  0.84352180  0.77974885     0.36600
C2521       C  0.81498426  0.84662901  0.72265043     0.36600
C2522       C  0.81376596  0.84859476  0.78253000     0.36600
C2523       C  0.72761760  0.87854415  0.64672035    -0.20800
C2524       C  0.76150530  0.88182394  0.64921107    -0.20800
C2525       C  0.72345675  0.88356695  0.85212509    -0.20800
C2526       C  0.75730983  0.88764372  0.85055937    -0.20800
C2527       C  0.64111537  0.84224973  0.73068890    -0.21900
C2528       C  0.64059114  0.84203255  0.76803261    -0.21900
C2529       C  0.84499798  0.83366508  0.73491765    -0.21900
C2530       C  0.84422978  0.83492083  0.77286176    -0.21900
C2531       C  0.68456779  0.84977556  0.68324783    -0.17200
C2532       C  0.80667649  0.85510848  0.68586111    -0.17200
C2533       C  0.80366868  0.85887327  0.81820284    -0.17200
C2534       C  0.68258487  0.85091313  0.81644626    -0.17200
H2535       H  0.71171101  0.89223828  0.62811246     0.15700
H2536       H  0.77571952  0.89997545  0.63479463     0.15700
H2537       H  0.70673932  0.89742840  0.86967486     0.15700
H2538       H  0.77104534  0.90631153  0.86497336     0.15700
H2539       H  0.61930740  0.84603517  0.71434922     0.13900
H2540       H  0.61834336  0.84544453  0.78390581     0.13900
H2541       H  0.86554751  0.82481321  0.71833735     0.13900
H2542       H  0.86403021  0.82712086  0.79109525     0.13900
H2543       H  0.74621094  0.82936893  0.71449360     0.27200
H2544       H  0.74513164  0.83122216  0.78847258     0.27200
C2545       C  0.61038872  0.88336404  0.87624980     0.87500
C2546       C  0.61970076  0.86368705  0.91110752    -0.52700
C2547       C  0.63327706  0.83268878  0.90444601     0.10500
C2548       C  0.63623933  0.82539100  0.86236206     0.21400
C2549       C  0.64198121  0.88519439  0.85278589    -0.53400
C2550       C  0.65569369  0.85489989  0.84501728     0.10600
C2551       C  0.58721065  0.86024335  0.85533200    -0.53000
C2552       C  0.60022295  0.82965009  0.84825614     0.11100
H2553       H  0.61330868  0.87259917  0.93833205     0.15600
H2554       H  0.64743017  0.80095851  0.85533782     0.01400
H2555       H  0.65129738  0.90825270  0.84102493     0.16000
H2556       H  0.56285135  0.86823797  0.84586356     0.15700
C2557       C  0.61370248  0.88421465  0.62261034     0.87500
C2558       C  0.64541005  0.88520404  0.64606430    -0.52700
C2559       C  0.65822449  0.85451203  0.65403395     0.10500
C2560       C  0.63785094  0.82556027  0.63672103     0.21400
C2561       C  0.62248667  0.86421861  0.58782246    -0.53400
C2562       C  0.63513649  0.83287073  0.59460316     0.10600
C2563       C  0.58983949  0.86177622  0.64363135    -0.53000
C2564       C  0.60193188  0.83085154  0.65085017     0.11100
H2565       H  0.65539634  0.90801818  0.65772808     0.15600
H2566       H  0.64825808  0.80076897  0.64369976     0.01400
H2567       H  0.61638614  0.87321636  0.56054489     0.16000
H2568       H  0.56568630  0.87046091  0.65299431     0.15700
C2569       C  0.88492697  0.61692571  0.62973263     0.87500
C2570       C  0.85283938  0.61732069  0.65253274    -0.52700
C2571       C  0.84044488  0.64851573  0.65905230     0.10500
C2572       C  0.86200434  0.67650267  0.64139691     0.21400
C2573       C  0.87709767  0.63615809  0.59410976    -0.53400
C2574       C  0.86500171  0.66786043  0.59962820     0.10600
C2575       C  0.90892671  0.63922169  0.65058109    -0.53000
C2576       C  0.89768411  0.67065164  0.65640627     0.11100
H2577       H  0.84185304  0.59497010  0.66420324     0.15600
H2578       H  0.85218298  0.70180480  0.64708627     0.01400
H2579       H  0.88314823  0.62628148  0.56718577     0.16000
H2580       H  0.93288176  0.63025237  0.66020782     0.15700
C2581       C  0.88724779  0.61820440  0.87245954     0.87500
C2582       C  0.87875980  0.63731751  0.90794648    -0.52700
C2583       C  0.86582093  0.66869962  0.90223683     0.10500
C2584       C  0.86311010  0.67725055  0.86044803     0.21400
C2585       C  0.85539376  0.61790878  0.84933095    -0.53400
C2586       C  0.84239634  0.64879941  0.84264029     0.10600
C2587       C  0.91090987  0.64095785  0.85192050    -0.53000
C2588       C  0.89909054  0.67215576  0.84597681     0.11100
H2589       H  0.88494760  0.62758751  0.93488364     0.15600
H2590       H  0.85268129  0.70222979  0.85441531     0.01400
H2591       H  0.84497422  0.59531236  0.83762756     0.16000
H2592       H  0.93504430  0.63235188  0.84245354     0.15700
O2593       O  0.95804554  0.74431501  0.78678493    -0.73400
O2594       O  0.50272087  0.79325158  0.71235147    -0.73400
O2595       O  0.95764266  0.74372835  0.71346223    -0.73500
O2596       O  0.50244181  0.79224493  0.78627611    -0.73500
O2597       O  0.54491739  0.75635439  0.78559615    -0.73400
O2598       O  0.99946648  0.70709668  0.71304176    -0.73400
O2599       O  0.54518765  0.75737799  0.71218801    -0.73400
O2600       O  0.99969432  0.70746703  0.78694715    -0.73500
Ni2601     Ni  0.97906115  0.77041825  0.74980743     1.25400
Ni2602     Ni  0.52431173  0.72993252  0.74841596     1.25400
C2603       C  0.97111941  0.71723814  0.79826626     0.88800
C2604       C  0.53168272  0.78448380  0.70126028     0.88700
C2605       C  0.97059351  0.71644221  0.70229082     0.88800
C2606       C  0.53115971  0.78296215  0.79753351     0.88900
N2607       N  0.75088400  0.65097174  0.69389724    -0.35600
N2608       N  0.70098101  0.64038957  0.75154912    -0.56100
N2609       N  0.75282120  0.64995523  0.80869537    -0.35600
N2610       N  0.80134487  0.65571894  0.75115276    -0.56100
C2611       C  0.72527853  0.63521755  0.67688360     0.28000
C2612       C  0.77946196  0.64192581  0.67648977     0.28000
C2613       C  0.72778850  0.63299440  0.82510075     0.28000
C2614       C  0.78162241  0.64089908  0.82556265     0.28000
C2615       C  0.68164995  0.64769257  0.72197481     0.36600
C2616       C  0.68278196  0.64688231  0.78219689     0.36600
C2617       C  0.81837804  0.66580269  0.72102614     0.36600
C2618       C  0.81937767  0.66545411  0.78076405     0.36600
C2619       C  0.73810617  0.61493448  0.64964055    -0.20800
C2620       C  0.77200542  0.61991541  0.64845844    -0.20800
C2621       C  0.74115348  0.61185687  0.85118521    -0.20800
C2622       C  0.77487170  0.61771085  0.85264203    -0.20800
C2623       C  0.65136861  0.66024548  0.73399482    -0.21900
C2624       C  0.65208436  0.65973043  0.77202433    -0.21900
C2625       C  0.84644816  0.68297220  0.73172998    -0.21900
C2626       C  0.84716813  0.68265781  0.76932617    -0.21900
C2627       C  0.69088737  0.64015411  0.68495088    -0.17200
C2628       C  0.81168631  0.65408237  0.68515317    -0.17200
C2629       C  0.81343508  0.65373056  0.81675821    -0.17200
C2630       C  0.69335210  0.63834315  0.81847047    -0.17200
H2631       H  0.72488347  0.59692592  0.63366280     0.15700
H2632       H  0.78906920  0.60775274  0.62980834     0.15700
H2633       H  0.72827046  0.59291166  0.86620512     0.15700
H2634       H  0.79226582  0.60524045  0.87064107     0.15700
H2635       H  0.63089042  0.66898647  0.71726280     0.13900
H2636       H  0.63225695  0.66798662  0.78997821     0.13900
H2637       H  0.86453783  0.69455824  0.71456559     0.13900
H2638       H  0.86608042  0.69369330  0.78595091     0.13900
H2639       H  0.74865418  0.66908352  0.71432013     0.27200
H2640       H  0.74998499  0.66887404  0.78927610     0.27200
C2641       C  0.91922974  0.69812400  0.82714135    -0.15400
C2642       C  0.95249126  0.69561794  0.82322053    -0.30600
H2643       H  0.90641610  0.71971679  0.81612835     0.13600
H2644       H  0.96629737  0.67540001  0.83568401     0.14200
C2645       C  0.95150057  0.69398638  0.67856158    -0.15400
C2646       C  0.91820805  0.69648002  0.67511549    -0.30600
H2647       H  0.96500252  0.67333272  0.66654233     0.13600
H2648       H  0.90578090  0.71855259  0.68547188     0.14200
C2649       C  0.58316524  0.80577666  0.67267826    -0.15400
C2650       C  0.54982908  0.80697976  0.67660363    -0.30600
H2651       H  0.59729317  0.78596833  0.68569830     0.13600
H2652       H  0.53531802  0.82621844  0.66320961     0.14200
C2653       C  0.54877712  0.80438007  0.82353007    -0.15400
C2654       C  0.58215859  0.80418301  0.82653167    -0.30600
H2655       H  0.53387956  0.82250639  0.83826549     0.13600
H2656       H  0.59677261  0.78544700  0.81227331     0.14200
C2657       C  0.69928268  0.58077400  0.92539119    -0.15400
C2658       C  0.69676247  0.54761189  0.92975251    -0.30600
H2659       H  0.72136994  0.59349360  0.93535171     0.13600
H2660       H  0.67602029  0.53390812  0.91815476     0.14200
C2661       C  0.69064840  0.54953097  0.57145023    -0.15400
C2662       C  0.69254702  0.58270831  0.57687844    -0.30600
H2663       H  0.67073184  0.53502940  0.58363965     0.13600
H2664       H  0.71300161  0.59672039  0.56489824     0.14200
C2665       C  0.80742293  0.91335889  0.57925499    -0.15400
C2666       C  0.80590809  0.94676396  0.57915832    -0.30600
H2667       H  0.78985270  0.89884893  0.56313925     0.13600
H2668       H  0.82295103  0.96141895  0.59571231     0.14200
C2669       C  0.79940740  0.91864703  0.92395144    -0.15400
C2670       C  0.80152447  0.95188618  0.92772394    -0.30600
H2671       H  0.77801818  0.90559635  0.93522194     0.13600
H2672       H  0.82151238  0.96581021  0.91489132     0.14200
C2673       C  0.59758210  0.91684157  0.61710636    -0.12200
C2674       C  0.57794591  0.93971254  0.61801311    -0.13800
C2675       C  0.58077093  0.59762504  0.63129919    -0.12200
C2676       C  0.55755727  0.57836547  0.63043153    -0.13800
C2677       C  0.90052922  0.58395017  0.62518572    -0.12200
C2678       C  0.92012050  0.56104197  0.62553249    -0.13800
C2679       C  0.93955414  0.92301679  0.63701691    -0.12200
C2680       C  0.91711199  0.90287635  0.63830400    -0.13800
C2681       C  0.58539627  0.59778720  0.87795305    -0.12200
C2682       C  0.56198703  0.57880066  0.87853588    -0.13800
C2683       C  0.57419631  0.93867710  0.88081413    -0.12200
C2684       C  0.59363801  0.91566143  0.88157241    -0.13800
C2685       C  0.91208111  0.90287782  0.87284624    -0.12200
C2686       C  0.93510388  0.92229786  0.87309934    -0.13800
C2687       C  0.92320104  0.56276850  0.87591962    -0.12200
C2688       C  0.90344925  0.58552293  0.87690932    -0.13800
loop_ 
_geom_bond_atom_site_label_1 
_geom_bond_atom_site_label_2 
_geom_bond_distance 
_geom_bond_site_symmetry_2 
_ccdc_geom_bond_type 
O1           Ni9   1.907   1_545  S
O1           C11   1.275       .  A
O2        Ni2025   1.908       .  S
O2           C12   1.275       .  A
O3        Ni1353   1.941   1_545  S
O3           C13   1.287       .  A
O4         Ni681   1.937       .  S
O4           C14   1.286       .  A
O5        Ni1354   1.908       .  S
O5           C14   1.276       .  A
O6         Ni682   1.907       .  S
O6           C13   1.275       .  A
O7          Ni10   1.939       .  S
O7           C12   1.286       .  A
O8        Ni2026   1.936       .  S
O8           C11   1.285       .  A
Ni9        O2018   1.906       .  S
Ni9        O1347   1.940   1_565  S
Ni9         O676   1.941       .  S
Ni9       Ni2026   2.391   1_565  S
Ni10       O1349   1.903   1_455  S
Ni10        O678   1.906       .  S
Ni10       O2024   1.940   1_455  S
Ni10      Ni2025   2.392       .  S
C11         C335   1.440       .  S
C12         C331   1.442       .  S
C13         C330   1.442       .  S
C14         C334   1.441       .  S
O15         Ni23   1.912       .  S
O15          C25   1.276       .  A
O16       Ni2039   1.919       .  S
O16          C26   1.278       .  A
O17        Ni695   1.937       .  S
O17          C27   1.286       .  A
O18       Ni1367   1.936       .  S
O18          C28   1.285       .  A
O19        Ni696   1.908   1_445  S
O19          C28   1.275       .  A
O20       Ni1368   1.907       .  S
O20          C27   1.275       .  A
O21         Ni24   1.939       .  S
O21          C26   1.285       .  A
O22       Ni2040   1.941   1_545  S
O22          C25   1.286       .  A
Ni23       O2032   1.913   1_545  S
Ni23        O689   1.941   1_545  S
Ni23       O1362   1.941       .  S
Ni23      Ni2040   2.390   1_545  S
Ni24        O691   1.912       .  S
Ni24       O1364   1.915   1_455  S
Ni24       O2038   1.940   1_455  S
Ni24      Ni2039   2.391       .  S
C25         C326   1.445       .  S
C26         C322   1.449       .  S
C27         C327   1.440       .  S
C28         C324   1.441       .  S
N29          C34   1.356       .  A
N29          C33   1.358       .  A
N29          H61   1.043       .  S
N30          C38   1.359       .  A
N30         C373   1.359   1_554  A
N31          C36   1.357       .  A
N31          C35   1.358       .  A
N31          H62   1.044       .  S
N32          C40   1.358       .  A
N32         C375   1.357   1_554  A
C33          C41   1.384       .  A
C33          C49   1.418       .  A
C34          C50   1.423       .  A
C34          C42   1.384       .  A
C35          C43   1.382       .  A
C35          C52   1.410       .  A
C36          C51   1.419       .  A
C36          C44   1.379       .  A
C37         N366   1.353       .  A
C37          C49   1.413       .  A
C37          C45   1.378       .  A
C38          C52   1.418       .  A
C38          C46   1.381       .  A
C39         N368   1.357       .  A
C39          C47   1.387       .  A
C39          C50   1.427       .  A
C40          C48   1.386       .  A
C40          C51   1.426       .  A
C41          C42   1.375       .  A
C41          H53   1.081       .  S
C42          H54   1.073       .  S
C43          C44   1.367       .  A
C43          H55   1.081       .  S
C44          H56   1.068       .  S
C45         C382   1.368       .  A
C45          H57   1.066       .  S
C46         C381   1.360   1_554  A
C46          H58   1.072       .  S
C47         C384   1.383       .  A
C47          H59   1.082       .  S
C48         C383   1.384   1_554  A
C48          H60   1.082       .  S
C49         C104   1.506       .  S
C50         C195   1.529       .  S
C51         C210   1.530       .  S
C52          C92   1.504       .  S
C63          C64   1.530       .  S
C63          C69   1.518       .  S
C63          C67   1.540       .  S
C63         C333   1.474       .  S
C64          H71   1.086       .  S
C64          C65   1.367       .  D
C65         C145   1.509       .  S
C65          C66   1.555       .  S
C66          C70   1.552       .  S
C66          C68   1.563       .  S
C66          H72   1.109       .  S
C67          H73   1.084       .  S
C67          C68   1.379       .  D
C68         C181   1.528       .  S
C69          H74   1.085       .  S
C69          C70   1.360       .  D
C70         C317   1.491       .  S
C75          C76   1.541       .  S
C75          C81   1.519       .  S
C75          C79   1.530       .  S
C75         C328   1.472       .  S
C76          H83   1.084       .  S
C76          C77   1.380       .  D
C77         C180   1.532       .  S
C77          C78   1.569       .  S
C78          C82   1.547       .  S
C78          C80   1.554       .  S
C78          H84   1.109       .  S
C79          H85   1.086       .  S
C79          C80   1.365       .  D
C80         C148   1.508       .  S
C81          H86   1.085       .  S
C81          C82   1.360       .  D
C82         C313   1.489       .  S
C87          C88   1.540       .  S
C87          C93   1.520       .  S
C87          C91   1.529       .  S
C87         C323   1.472       .  S
C88          H95   1.084       .  S
C88          C89   1.380       .  D
C89         C275   1.528       .  S
C89          C90   1.564       .  S
C90          C94   1.545       .  S
C90          C92   1.550       .  S
C90          H96   1.110       .  S
C91          H97   1.086       .  S
C91          C92   1.365       .  D
C93          H98   1.085       .  S
C93          C94   1.361       .  D
C94         C310   1.486       .  S
C99         C100   1.517       .  S
C99         C105   1.544       .  S
C99         C103   1.527       .  S
C99         C329   1.474       .  S
C100        H107   1.085       .  S
C100        C101   1.358       .  D
C101        C102   1.552       .  S
C101        C305   1.489       .  S
C102        C106   1.560       .  S
C102        C104   1.553       .  S
C102        H108   1.109       .  S
C103        H109   1.086       .  S
C103        C104   1.366       .  D
C105        H110   1.084       .  S
C105        C106   1.381       .  D
C106        C278   1.526       .  S
O111       Ni119   1.911   1_554  S
O111        C121   1.280       .  A
O112      Ni1127   1.913       .  S
O112        C122   1.280       .  A
O113       Ni455   1.907       .  S
O113        C123   1.279       .  A
O114       Ni791   1.916       .  S
O114        C124   1.281       .  A
O115       Ni120   1.912       .  S
O115        C124   1.279       .  A
O116      Ni1128   1.914       .  S
O116        C123   1.281   1_565  A
O117       Ni456   1.912       .  S
O117        C122   1.280       .  A
O118       Ni792   1.910   1_545  S
O118        C121   1.280       .  A
Ni119      O1120   1.914   1_545  S
Ni119       O449   1.910       .  S
Ni119       O786   1.915   1_546  S
Ni119      Ni792   2.393   1_546  S
Ni120      O1124   1.913   1_554  S
Ni120       O453   1.911   1_554  S
Ni120       O790   1.916       .  S
Ni120      Ni791   2.393       .  S
C121        C309   1.464       .  S
C122        C318   1.468       .  S
C123        C306   1.466       .  S
C124        C314   1.467       .  S
N125        C130   1.353       .  A
N125        C129   1.359       .  A
N125        H157   1.045       .  S
N126        C134   1.358       .  A
N126        C469   1.359   1_554  A
N127        C132   1.359       .  A
N127        C131   1.360       .  A
N127        H158   1.044       .  S
N128        C136   1.356       .  A
N128        C471   1.356   1_554  A
C129        C137   1.383       .  A
C129        C145   1.416       .  A
C130        C146   1.423       .  A
C130        C138   1.383       .  A
C131        C139   1.381       .  A
C131        C148   1.414       .  A
C132        C147   1.425       .  A
C132        C140   1.380       .  A
C133        N462   1.354       .  A
C133        C145   1.412       .  A
C133        C141   1.377       .  A
C134        C148   1.419       .  A
C134        C142   1.382       .  A
C135        N464   1.357       .  A
C135        C143   1.387       .  A
C135        C146   1.426       .  A
C136        C144   1.387       .  A
C136        C147   1.424       .  A
C137        C138   1.376       .  A
C137        H149   1.081       .  S
C138        H150   1.069       .  S
C139        C140   1.370       .  A
C139        H151   1.081       .  S
C140        H152   1.067       .  S
C141        C478   1.370       .  A
C141        H153   1.067       .  S
C142        C477   1.362   1_554  A
C142        H154   1.072       .  S
C143        C480   1.383       .  A
C143        H155   1.082       .  S
C144        C479   1.383   1_554  A
C144        H156   1.082       .  S
C146        C231   1.526       .  S
C147        C222   1.531       .  S
N159        C164   1.355       .  A
N159        C163   1.358       .  A
N159        H191   1.044       .  S
N160        C167   1.352       .  A
N160        C168   1.355       .  A
N161        C166   1.355       .  A
N161        C165   1.361       .  A
N161        H192   1.044       .  S
N162        C169   1.359       .  A
N162        C170   1.357       .  A
C163        C171   1.382       .  A
C163        C179   1.413       .  A
C164        C180   1.422       .  A
C164        C172   1.382       .  A
C165        C173   1.383       .  A
C165        C182   1.420       .  A
C166        C181   1.424       .  A
C166        C174   1.382       .  A
C167        C179   1.413       .  A
C167        C175   1.377       .  A
C168        C182   1.411       .  A
C168        C176   1.379       .  A
C169        C177   1.386       .  A
C169        C180   1.428       .  A
C170        C178   1.388       .  A
C170        C181   1.429       .  A
C171        C172   1.372       .  A
C171        H183   1.081       .  S
C172        H184   1.068       .  S
C173        C174   1.375       .  A
C173        H185   1.080       .  S
C174        H186   1.070       .  S
C175        C176   1.370       .  A
C175        H187   1.064       .  S
C176        H188   1.072       .  S
C177        C178   1.383       .  A
C177        H189   1.082       .  S
C178        H190   1.082       .  S
C179        C207   1.507       .  S
C182        C198   1.512       .  S
C193        C194   1.542       .  S
C193        C199   1.514       .  S
C193        C197   1.529       .  S
C193        C332   1.474       .  S
C194        H201   1.084       .  S
C194        C195   1.381       .  D
C195        C196   1.563       .  S
C196        C200   1.560       .  S
C196        C198   1.556       .  S
C196        H202   1.108       .  S
C197        H203   1.086       .  S
C197        C198   1.368       .  D
C199        H204   1.084       .  S
C199        C200   1.357       .  D
C200        C302   1.496       .  S
C205        C206   1.532       .  S
C205        C211   1.516       .  S
C205        C209   1.542       .  S
C205        C321   1.480       .  S
C206        H213   1.086       .  S
C206        C207   1.371       .  D
C207        C208   1.551       .  S
C208        C212   1.548       .  S
C208        C210   1.567       .  S
C208        H214   1.110       .  S
C209        H215   1.084       .  S
C209        C210   1.379       .  D
C211        H216   1.086       .  S
C211        C212   1.361       .  D
C212        C297   1.490       .  S
C217        C218   1.530       .  S
C217        C223   1.518       .  S
C217        C221   1.544       .  S
C217        C325   1.476       .  S
C218        H225   1.086       .  S
C218        C219   1.366       .  D
C219        C276   1.511       .  S
C219        C220   1.555       .  S
C220        C224   1.547       .  S
C220        C222   1.564       .  S
C220        H226   1.110       .  S
C221        H227   1.084       .  S
C221        C222   1.382       .  D
C223        H228   1.085       .  S
C223        C224   1.358       .  D
C224        C294   1.486       .  S
C229        C230   1.539       .  S
C229        C235   1.519       .  S
C229        C233   1.529       .  S
C229        C336   1.472       .  S
C230        H237   1.084       .  S
C230        C231   1.380       .  D
C231        C232   1.563       .  S
C232        C236   1.547       .  S
C232        C234   1.557       .  S
C232        H238   1.110       .  S
C233        H239   1.086       .  S
C233        C234   1.365       .  D
C234        C277   1.512       .  S
C235        H240   1.085       .  S
C235        C236   1.360       .  D
C236        C289   1.487       .  S
O241       Ni249   1.910       .  S
O241        C251   1.280       .  A
O242      Ni1593   1.892   1_455  S
O242        C252   1.275       .  A
O243       Ni249   1.907       .  S
O243        C253   1.279       .  A
O244      Ni1593   1.930       .  S
O244        C254   1.286   1_655  A
O245       Ni250   1.900       .  S
O245        C254   1.276       .  A
O246      Ni1594   1.911       .  S
O246        C253   1.280       .  A
O247       Ni250   1.923       .  S
O247        C252   1.283       .  A
O248      Ni1594   1.912       .  S
O248        C251   1.280       .  A
Ni249      O1586   1.912       .  S
Ni249      O1588   1.910       .  S
Ni249     Ni1594   2.394       .  S
Ni250      O1590   1.895   1_455  S
Ni250      O1592   1.930   1_455  S
Ni250     Ni1593   2.393   1_455  S
C251        C290   1.465       .  S
C252        C298   1.459       .  S
C253        C293   1.463       .  S
C254        C301   1.471       .  S
N255        C260   1.359       .  A
N255        C259   1.358       .  A
N255        H287   1.045       .  S
N256        C263   1.355       .  A
N256        C264   1.355       .  A
N257        C262   1.359       .  A
N257        C261   1.357       .  A
N257        H288   1.045       .  S
N258        C265   1.359       .  A
N258        C266   1.360       .  A
C259        C267   1.381       .  A
C259        C275   1.424       .  A
C260        C276   1.415       .  A
C260        C268   1.382       .  A
C261        C269   1.381       .  A
C261        C278   1.422       .  A
C262        C277   1.415       .  A
C262        C270   1.383       .  A
C263        C275   1.423       .  A
C263        C271   1.387       .  A
C264        C278   1.422       .  A
C264        C272   1.386       .  A
C265        C273   1.378       .  A
C265        C276   1.419       .  A
C266        C274   1.378       .  A
C266        C277   1.419       .  A
C267        C268   1.370       .  A
C267        H279   1.068       .  S
C268        H280   1.081       .  S
C269        C270   1.372       .  A
C269        H281   1.070       .  S
C270        H282   1.081       .  S
C271        C272   1.383       .  A
C271        H283   1.082       .  S
C272        H284   1.082       .  S
C273        C274   1.357       .  A
C273        H285   1.066       .  S
C274        H286   1.067       .  S
C289        H291   1.086       .  S
C289        C290   1.346       .  D
C290        H292   1.084       .  S
C293        H295   1.084       .  S
C293        C294   1.346       .  D
C294        H296   1.086       .  S
C297        H299   1.084       .  S
C297        C298   1.339       .  D
C298        H300   1.085       .  S
C301        H303   1.082       .  S
C301        C302   1.356       .  D
C302        H304   1.085       .  S
C305        H307   1.085       .  S
C305        C306   1.347       .  D
C306        H308   1.083       .  S
C309        H311   1.084       .  S
C309        C310   1.345       .  D
C310        H312   1.086       .  S
C313        H315   1.086       .  S
C313        C314   1.348       .  D
C314        H316   1.084       .  S
C317        H319   1.085       .  S
C317        C318   1.347       .  D
C318        H320   1.083       .  S
C321        C322   1.214       .  T
C323        C324   1.209       .  T
C325        C326   1.212       .  T
C327        C328   1.209       .  T
C329        C330   1.210       .  T
C331        C332   1.210       .  T
C333        C334   1.210       .  T
C335        C336   1.209       .  T
O337       Ni345   1.914   1_545  S
O337        C347   1.277       .  A
O338      Ni2361   1.911   1_455  S
O338        C348   1.276       .  A
O339      Ni1689   1.936   1_455  S
O339        C349   1.285       .  A
O340      Ni1017   1.937       .  S
O340        C350   1.286       .  A
O341      Ni1690   1.908       .  S
O341        C350   1.275       .  A
O342      Ni1018   1.910   1_455  S
O342        C349   1.276       .  A
O343       Ni346   1.943       .  S
O343        C348   1.287       .  A
O344      Ni2362   1.937   1_545  S
O344        C347   1.285       .  A
Ni345      O2354   1.912       .  S
Ni345      O1683   1.940   1_565  S
Ni345      O1012   1.940       .  S
Ni345     Ni2362   2.391       .  S
Ni346      O1685   1.907   1_455  S
Ni346      O1014   1.908       .  S
Ni346      O2360   1.941   1_455  S
Ni346     Ni2361   2.391   1_455  S
C347        C671   1.445       .  S
C348        C667   1.447       .  S
C349        C666   1.442       .  S
C350        C670   1.441       .  S
O351       Ni359   1.910   1_545  S
O351        C361   1.276       .  A
O352      Ni2375   1.912   1_455  S
O352        C362   1.276       .  A
O353      Ni1031   1.933       .  S
O353        C363   1.285       .  A
O354      Ni1703   1.938   1_455  S
O354        C364   1.285       .  A
O355      Ni1032   1.909       .  S
O355        C364   1.276       .  A
O356      Ni1704   1.908       .  S
O356        C363   1.276       .  A
O357       Ni360   1.937   1_455  S
O357        C362   1.286       .  A
O358      Ni2376   1.936   1_545  S
O358        C361   1.285       .  A
Ni359      O2368   1.913       .  S
Ni359      O1025   1.936       .  S
Ni359      O1698   1.938   1_565  S
Ni359     Ni2376   2.391       .  S
Ni360      O1027   1.910   1_655  S
Ni360      O1700   1.908       .  S
Ni360      O2374   1.937       .  S
Ni360     Ni2375   2.391       .  S
C361        C662   1.441       .  S
C362        C658   1.444       .  S
C363        C663   1.437       .  S
C364        C660   1.441       .  S
N365        C370   1.359       .  A
N365        C369   1.362       .  A
N365        H397   1.044       .  S
N366        C374   1.354       .  A
N367        C372   1.354       .  A
N367        C371   1.359       .  A
N367        H398   1.044       .  S
N368        C376   1.357       .  A
C369        C377   1.381       .  A
C369        C385   1.415       .  A
C370        C386   1.426       .  A
C370        C378   1.380       .  A
C371        C379   1.382       .  A
C371        C388   1.415       .  A
C372        C387   1.422       .  A
C372        C380   1.382       .  A
C373        C385   1.419       .  A
C373        C381   1.382       .  A
C374        C388   1.411       .  A
C374        C382   1.377       .  A
C375        C383   1.387       .  A
C375        C386   1.427       .  A
C376        C384   1.386       .  A
C376        C387   1.425       .  A
C377        C378   1.369       .  A
C377        H389   1.081       .  S
C378        H390   1.067       .  S
C379        C380   1.373       .  A
C379        H391   1.081       .  S
C380        H392   1.068       .  S
C381        H393   1.070       .  S
C382        H394   1.068       .  S
C383        H395   1.082       .  S
C384        H396   1.082       .  S
C385        C440   1.511       .  S
C386        C531   1.535       .  S
C387        C546   1.527       .  S
C388        C428   1.508       .  S
C399        C400   1.529       .  S
C399        C405   1.520       .  S
C399        C403   1.542       .  S
C399        C669   1.472       .  S
C400        H407   1.086       .  S
C400        C401   1.364       .  D
C401        C481   1.504       .  S
C401        C402   1.551       .  S
C402        C406   1.545       .  S
C402        C404   1.565       .  S
C402        H408   1.109       .  S
C403        H409   1.084       .  S
C403        C404   1.382       .  D
C404        C517   1.531       .  S
C405        H410   1.085       .  S
C405        C406   1.360       .  D
C406        C653   1.484       .  S
C411        C412   1.539       .  S
C411        C417   1.519       .  S
C411        C415   1.527       .  S
C411        C664   1.469       .  S
C412        H419   1.085       .  S
C412        C413   1.378       .  D
C413        C516   1.524       .  S
C413        C414   1.563       .  S
C414        C418   1.554       .  S
C414        C416   1.554       .  S
C414        H420   1.109       .  S
C415        H421   1.086       .  S
C415        C416   1.366       .  D
C416        C484   1.504       .  S
C417        H422   1.085       .  S
C417        C418   1.359       .  D
C418        C649   1.493       .  S
C423        C424   1.542       .  S
C423        C429   1.517       .  S
C423        C427   1.529       .  S
C423        C659   1.473       .  S
C424        H431   1.084       .  S
C424        C425   1.380       .  D
C425        C611   1.530       .  S
C425        C426   1.565       .  S
C426        C430   1.552       .  S
C426        C428   1.553       .  S
C426        H432   1.109       .  S
C427        H433   1.086       .  S
C427        C428   1.367       .  D
C429        H434   1.085       .  S
C429        C430   1.359       .  D
C430        C646   1.489       .  S
C435        C436   1.520       .  S
C435        C441   1.541       .  S
C435        C439   1.531       .  S
C435        C665   1.474       .  S
C436        H443   1.085       .  S
C436        C437   1.360       .  D
C437        C438   1.545       .  S
C437        C641   1.486       .  S
C438        C442   1.565       .  S
C438        C440   1.554       .  S
C438        H444   1.109       .  S
C439        H445   1.086       .  S
C439        C440   1.366       .  D
C441        H446   1.084       .  S
C441        C442   1.381       .  D
C442        C614   1.530       .  S
O447       Ni455   1.906       .  S
O447        C457   1.279       .  A
O448       Ni791   1.911   1_556  S
O448        C458   1.279       .  A
O449        C459   1.280       .  A
O450      Ni1127   1.918       .  S
O450        C460   1.282       .  A
O451       Ni456   1.910       .  S
O451        C460   1.279       .  A
O452       Ni792   1.912   1_546  S
O452        C459   1.280       .  A
O453        C458   1.280       .  A
O454      Ni1128   1.915       .  S
O454        C457   1.281   1_565  A
Ni455       O784   1.911   1_545  S
Ni455      O1122   1.909   1_545  S
Ni455     Ni1128   2.394   1_545  S
Ni456       O788   1.912       .  S
Ni456      O1126   1.915       .  S
Ni456     Ni1127   2.393       .  S
C457        C645   1.466       .  S
C458        C654   1.463       .  S
C459        C642   1.465       .  S
C460        C650   1.470       .  S
N461        C466   1.358       .  A
N461        C465   1.358       .  A
N461        H493   1.044       .  S
N462        C470   1.353       .  A
N463        C468   1.354       .  A
N463        C467   1.357       .  A
N463        H494   1.045       .  S
N464        C472   1.358       .  A
C465        C473   1.381       .  A
C465        C481   1.411       .  A
C466        C482   1.422       .  A
C466        C474   1.379       .  A
C467        C475   1.384       .  A
C467        C484   1.415       .  A
C468        C483   1.421       .  A
C468        C476   1.382       .  A
C469        C481   1.418       .  A
C469        C477   1.382       .  A
C470        C484   1.411       .  A
C470        C478   1.378       .  A
C471        C479   1.386       .  A
C471        C482   1.424       .  A
C472        C480   1.386       .  A
C472        C483   1.426       .  A
C473        C474   1.368       .  A
C473        H485   1.081       .  S
C474        H486   1.066       .  S
C475        C476   1.375       .  A
C475        H487   1.081       .  S
C476        H488   1.070       .  S
C477        H489   1.073       .  S
C478        H490   1.068       .  S
C479        H491   1.082       .  S
C480        H492   1.082       .  S
C482        C567   1.530       .  S
C483        C558   1.528       .  S
N495        C500   1.355       .  A
N495        C499   1.358       .  A
N495        H527   1.044       .  S
N496        C503   1.361       .  A
N496        C504   1.359       .  A
N497        C502   1.359       .  A
N497        C501   1.359       .  A
N497        H528   1.043       .  S
N498        C505   1.355       .  A
N498        C506   1.356       .  A
C499        C507   1.383       .  A
C499        C515   1.413       .  A
C500        C516   1.420       .  A
C500        C508   1.381       .  A
C501        C509   1.381       .  A
C501        C518   1.415       .  A
C502        C517   1.426       .  A
C502        C510   1.381       .  A
C503        C515   1.419       .  A
C503        C511   1.377       .  A
C504        C518   1.420       .  A
C504        C512   1.378       .  A
C505        C513   1.387       .  A
C505        C516   1.423       .  A
C506        C514   1.387       .  A
C506        C517   1.424       .  A
C507        C508   1.372       .  A
C507        H519   1.081       .  S
C508        H520   1.070       .  S
C509        C510   1.370       .  A
C509        H521   1.081       .  S
C510        H522   1.067       .  S
C511        C512   1.358       .  A
C511        H523   1.067       .  S
C512        H524   1.066       .  S
C513        C514   1.383       .  A
C513        H525   1.082       .  S
C514        H526   1.082       .  S
C515        C543   1.512       .  S
C518        C534   1.511       .  S
C529        C530   1.545       .  S
C529        C535   1.518       .  S
C529        C533   1.531       .  S
C529        C668   1.479       .  S
C530        H537   1.084       .  S
C530        C531   1.383       .  D
C531        C532   1.567       .  S
C532        C536   1.547       .  S
C532        C534   1.555       .  S
C532        H538   1.110       .  S
C533        H539   1.086       .  S
C533        C534   1.366       .  D
C535        H540   1.085       .  S
C535        C536   1.359       .  D
C536        C638   1.489       .  S
C541        C542   1.531       .  S
C541        C547   1.519       .  S
C541        C545   1.541       .  S
C541        C657   1.475       .  S
C542        H549   1.086       .  S
C542        C543   1.366       .  D
C543        C544   1.556       .  S
C544        C548   1.546       .  S
C544        C546   1.564       .  S
C544        H550   1.110       .  S
C545        H551   1.084       .  S
C545        C546   1.380       .  D
C547        H552   1.085       .  S
C547        C548   1.360       .  D
C548        C633   1.487       .  S
C553        C554   1.529       .  S
C553        C559   1.517       .  S
C553        C557   1.541       .  S
C553        C661   1.473       .  S
C554        H561   1.086       .  S
C554        C555   1.368       .  D
C555        C612   1.508       .  S
C555        C556   1.553       .  S
C556        C560   1.550       .  S
C556        C558   1.564       .  S
C556        H562   1.109       .  S
C557        H563   1.084       .  S
C557        C558   1.379       .  D
C559        H564   1.084       .  S
C559        C560   1.359       .  D
C560        C630   1.486       .  S
C565        C566   1.542       .  S
C565        C571   1.518       .  S
C565        C569   1.532       .  S
C565        C672   1.477       .  S
C566        H573   1.084       .  S
C566        C567   1.379       .  D
C567        C568   1.566       .  S
C568        C572   1.552       .  S
C568        C570   1.556       .  S
C568        H574   1.109       .  S
C569        H575   1.086       .  S
C569        C570   1.369       .  D
C570        C613   1.513       .  S
C571        H576   1.085       .  S
C571        C572   1.358       .  D
C572        C625   1.489       .  S
O577       Ni585   1.907       .  S
O577        C587   1.280       .  A
O578      Ni1929   1.910   1_455  S
O578        C588   1.280       .  A
O579       Ni585   1.907       .  S
O579        C589   1.280       .  A
O580      Ni1929   1.912   1_455  S
O580        C590   1.280       .  A
O581       Ni586   1.910       .  S
O581        C590   1.279       .  A
O582      Ni1930   1.911       .  S
O582        C589   1.280       .  A
O583       Ni586   1.911       .  S
O583        C588   1.280       .  A
O584      Ni1930   1.915       .  S
O584        C587   1.280       .  A
Ni585      O1922   1.910       .  S
Ni585      O1924   1.912       .  S
Ni585     Ni1930   2.394       .  S
Ni586      O1926   1.911   1_455  S
Ni586      O1928   1.913   1_455  S
Ni586     Ni1929   2.394   1_455  S
C587        C626   1.466       .  S
C588        C634   1.463       .  S
C589        C629   1.464       .  S
C590        C637   1.465       .  S
N591        C596   1.359       .  A
N591        C595   1.354       .  A
N591        H623   1.044       .  S
N592        C599   1.358       .  A
N592        C600   1.358       .  A
N593        C598   1.360       .  A
N593        C597   1.355       .  A
N593        H624   1.044       .  S
N594        C601   1.354       .  A
N594        C602   1.354       .  A
C595        C603   1.382       .  A
C595        C611   1.422       .  A
C596        C612   1.415       .  A
C596        C604   1.383       .  A
C597        C605   1.382       .  A
C597        C614   1.424       .  A
C598        C613   1.417       .  A
C598        C606   1.382       .  A
C599        C611   1.428       .  A
C599        C607   1.387       .  A
C600        C614   1.427       .  A
C600        C608   1.387       .  A
C601        C609   1.378       .  A
C601        C612   1.413       .  A
C602        C610   1.377       .  A
C602        C613   1.414       .  A
C603        C604   1.373       .  A
C603        H615   1.069       .  S
C604        H616   1.081       .  S
C605        C606   1.375       .  A
C605        H617   1.069       .  S
C606        H618   1.081       .  S
C607        C608   1.384       .  A
C607        H619   1.082       .  S
C608        H620   1.082       .  S
C609        C610   1.371       .  A
C609        H621   1.068       .  S
C610        H622   1.066       .  S
C625        H627   1.085       .  S
C625        C626   1.347       .  D
C626        H628   1.084       .  S
C629        H631   1.083       .  S
C629        C630   1.345       .  D
C630        H632   1.085       .  S
C633        H635   1.086       .  S
C633        C634   1.345       .  D
C634        H636   1.084       .  S
C637        H639   1.083       .  S
C637        C638   1.346       .  D
C638        H640   1.086       .  S
C641        H643   1.086       .  S
C641        C642   1.346       .  D
C642        H644   1.084       .  S
C645        H647   1.083       .  S
C645        C646   1.347       .  D
C646        H648   1.085       .  S
C649        H651   1.085       .  S
C649        C650   1.349       .  D
C650        H652   1.083       .  S
C653        H655   1.086       .  S
C653        C654   1.345       .  D
C654        H656   1.084       .  S
C657        C658   1.211       .  T
C659        C660   1.210       .  T
C661        C662   1.210       .  T
C663        C664   1.207       .  T
C665        C666   1.210       .  T
C667        C668   1.214       .  T
C669        C670   1.210       .  T
C671        C672   1.212       .  T
O673       Ni681   1.910       .  S
O673        C683   1.276       .  A
O674      Ni1353   1.901       .  S
O674        C684   1.274       .  A
O675      Ni2025   1.940       .  S
O675        C685   1.287       .  A
O676        C686   1.286       .  A
O677      Ni2026   1.911   1_565  S
O677        C686   1.276       .  A
O678        C685   1.275       .  A
O679       Ni682   1.938   1_565  S
O679        C684   1.286       .  A
O680      Ni1354   1.940       .  S
O680        C683   1.286       .  A
Ni681      O1346   1.911       .  S
Ni681      O2019   1.939       .  S
Ni681     Ni1354   2.391       .  S
Ni682      O2021   1.909   1_445  S
Ni682      O1352   1.934   1_455  S
Ni682     Ni1353   2.392   1_545  S
C683       C1007   1.443       .  S
C684       C1003   1.438       .  S
C685       C1002   1.442       .  S
C686       C1006   1.445       .  S
O687       Ni695   1.909       .  S
O687        C697   1.275       .  A
O688      Ni1367   1.909   1_565  S
O688        C698   1.275       .  A
O689        C699   1.286       .  A
O690      Ni2039   1.929       .  S
O690        C700   1.283       .  A
O691        C700   1.277       .  A
O692      Ni2040   1.912       .  S
O692        C699   1.276       .  A
O693       Ni696   1.942   1_455  S
O693        C698   1.287       .  A
O694      Ni1368   1.940       .  S
O694        C697   1.286       .  A
Ni695      O1360   1.911       .  S
Ni695      O2034   1.933       .  S
Ni695     Ni1368   2.392       .  S
Ni696      O2036   1.911       .  S
Ni696      O1366   1.945   1_565  S
Ni696     Ni1367   2.391   1_665  S
C697        C998   1.443       .  S
C698        C994   1.445       .  S
C699        C999   1.447       .  S
C700        C996   1.439       .  S
N701        C706   1.361       .  A
N701        C705   1.359       .  A
N701        H733   1.045       .  S
N702       C1045   1.354   1_554  A
N702        C710   1.355       .  A
N703        C708   1.354       .  A
N703        C707   1.360       .  A
N703        H734   1.044       .  S
N704       C1047   1.357   1_554  A
N704        C712   1.357       .  A
C705        C713   1.383       .  A
C705        C721   1.417       .  A
C706        C722   1.426       .  A
C706        C714   1.382       .  A
C707        C715   1.383       .  A
C707        C724   1.416       .  A
C708        C723   1.422       .  A
C708        C716   1.383       .  A
C709       N1038   1.359       .  A
C709        C721   1.422       .  A
C709        C717   1.382       .  A
C710        C724   1.413       .  A
C710        C718   1.377       .  A
C711       N1040   1.357       .  A
C711        C719   1.387       .  A
C711        C722   1.427       .  A
C712        C720   1.387       .  A
C712        C723   1.427       .  A
C713        C714   1.369       .  A
C713        H725   1.081       .  S
C714        H726   1.071       .  S
C715        C716   1.375       .  A
C715        H727   1.081       .  S
C716        H728   1.070       .  S
C717       C1054   1.359       .  A
C717        H729   1.070       .  S
C718       C1053   1.370   1_554  A
C718        H730   1.067       .  S
C719       C1056   1.382       .  A
C719        H731   1.082       .  S
C720       C1055   1.383   1_554  A
C720        H732   1.082       .  S
C721        C776   1.507       .  S
C722        C867   1.536       .  S
C723        C882   1.527       .  S
C724        C764   1.513       .  S
C735        C736   1.530       .  S
C735        C741   1.519       .  S
C735        C739   1.541       .  S
C735       C1005   1.476       .  S
C736        H743   1.086       .  S
C736        C737   1.366       .  D
C737        C817   1.512       .  S
C737        C738   1.559       .  S
C738        C742   1.546       .  S
C738        C740   1.563       .  S
C738        H744   1.110       .  S
C739        H745   1.084       .  S
C739        C740   1.382       .  D
C740        C853   1.528       .  S
C741        H746   1.086       .  S
C741        C742   1.360       .  D
C742        C989   1.487       .  S
C747        C748   1.544       .  S
C747        C753   1.517       .  S
C747        C751   1.533       .  S
C747       C1000   1.479       .  S
C748        H755   1.084       .  S
C748        C749   1.379       .  D
C749        C852   1.530       .  S
C749        C750   1.567       .  S
C750        C754   1.552       .  S
C750        C752   1.559       .  S
C750        H756   1.110       .  S
C751        H757   1.086       .  S
C751        C752   1.369       .  D
C752        C820   1.516       .  S
C753        H758   1.085       .  S
C753        C754   1.358       .  D
C754        C985   1.491       .  S
C759        C760   1.537       .  S
C759        C765   1.517       .  S
C759        C763   1.532       .  S
C759        C995   1.470       .  S
C760        H767   1.085       .  S
C760        C761   1.374       .  D
C761        C947   1.524       .  S
C761        C762   1.567       .  S
C762        C766   1.554       .  S
C762        C764   1.558       .  S
C762        H768   1.110       .  S
C763        H769   1.086       .  S
C763        C764   1.370       .  D
C765        H770   1.085       .  S
C765        C766   1.357       .  D
C766        C982   1.492       .  S
C771        C772   1.519       .  S
C771        C777   1.543       .  S
C771        C775   1.526       .  S
C771       C1001   1.473       .  S
C772        H779   1.085       .  S
C772        C773   1.360       .  D
C773        C774   1.546       .  S
C773        C977   1.486       .  S
C774        C778   1.565       .  S
C774        C776   1.555       .  S
C774        H780   1.109       .  S
C775        H781   1.087       .  S
C775        C776   1.363       .  D
C777        H782   1.084       .  S
C777        C778   1.383       .  D
C778        C950   1.533       .  S
O783       Ni791   1.908       .  S
O783        C793   1.279       .  A
O784        C794   1.280       .  A
O785      Ni1127   1.913       .  S
O785        C795   1.280       .  A
O786        C796   1.281       .  A
O787       Ni792   1.910       .  S
O787        C796   1.280       .  A
O788        C795   1.280       .  A
O789      Ni1128   1.912       .  S
O789        C794   1.280       .  A
O790        C793   1.281       .  A
Ni791      O1121   1.912   1_554  S
Ni792      O1125   1.908   1_554  S
C793        C981   1.467       .  S
C794        C990   1.464       .  S
C795        C978   1.466       .  S
C796        C986   1.468       .  S
N797        C802   1.358       .  A
N797        C801   1.360       .  A
N797        H829   1.043       .  S
N798       C1141   1.355       .  A
N798        C806   1.357   1_556  A
N799        C804   1.353       .  A
N799        C803   1.360       .  A
N799        H830   1.045       .  S
N800       C1143   1.355       .  A
N800        C808   1.355   1_556  A
C801        C809   1.384       .  A
C801        C817   1.417       .  A
C802        C818   1.423       .  A
C802        C810   1.378       .  A
C803        C811   1.383       .  A
C803        C820   1.416       .  A
C804        C819   1.420       .  A
C804        C812   1.381       .  A
C805       N1134   1.359       .  A
C805        C817   1.419       .  A
C805        C813   1.380       .  A
C806        C820   1.415       .  A
C806        C814   1.376       .  A
C807       N1136   1.356       .  A
C807        C815   1.387       .  A
C807        C818   1.425       .  A
C808        C816   1.385       .  A
C808        C819   1.419       .  A
C809        C810   1.374       .  A
C809        H821   1.081       .  S
C810        H822   1.071       .  S
C811        C812   1.376       .  A
C811        H823   1.080       .  S
C812        H824   1.072       .  S
C813       C1150   1.356       .  A
C813        H825   1.068       .  S
C814       C1149   1.369   1_554  A
C814        H826   1.067       .  S
C815       C1152   1.383       .  A
C815        H827   1.082       .  S
C816       C1151   1.382   1_554  A
C816        H828   1.082       .  S
C818        C903   1.532       .  S
C819        C894   1.520       .  S
N831        C836   1.353       .  A
N831        C835   1.357       .  A
N831        H863   1.044       .  S
N832        C839   1.352       .  A
N832        C840   1.354       .  A
N833        C838   1.355       .  A
N833        C837   1.361       .  A
N833        H864   1.043       .  S
N834        C841   1.359       .  A
N834        C842   1.356       .  A
C835        C843   1.384       .  A
C835        C851   1.414       .  A
C836        C852   1.418       .  A
C836        C844   1.381       .  A
C837        C845   1.383       .  A
C837        C854   1.420       .  A
C838        C853   1.426       .  A
C838        C846   1.383       .  A
C839        C851   1.413       .  A
C839        C847   1.377       .  A
C840        C854   1.410       .  A
C840        C848   1.379       .  A
C841        C849   1.386       .  A
C841        C852   1.427       .  A
C842        C850   1.387       .  A
C842        C853   1.427       .  A
C843        C844   1.375       .  A
C843        H855   1.080       .  S
C844        H856   1.070       .  S
C845        C846   1.376       .  A
C845        H857   1.081       .  S
C846        H858   1.068       .  S
C847        C848   1.370       .  A
C847        H859   1.063       .  S
C848        H860   1.072       .  S
C849        C850   1.384       .  A
C849        H861   1.082       .  S
C850        H862   1.082       .  S
C851        C879   1.506       .  S
C854        C870   1.511       .  S
C865        C866   1.543       .  S
C865        C871   1.512       .  S
C865        C869   1.527       .  S
C865       C1004   1.470       .  S
C866        H873   1.084       .  S
C866        C867   1.383       .  D
C867        C868   1.566       .  S
C868        C872   1.561       .  S
C868        C870   1.557       .  S
C868        H874   1.107       .  S
C869        H875   1.086       .  S
C869        C870   1.366       .  D
C871        H876   1.085       .  S
C871        C872   1.354       .  D
C872        C974   1.494       .  S
C877        C878   1.529       .  S
C877        C883   1.515       .  S
C877        C881   1.542       .  S
C877        C993   1.476       .  S
C878        H885   1.086       .  S
C878        C879   1.368       .  D
C879        C880   1.554       .  S
C880        C884   1.549       .  S
C880        C882   1.563       .  S
C880        H886   1.109       .  S
C881        H887   1.084       .  S
C881        C882   1.381       .  D
C883        H888   1.085       .  S
C883        C884   1.360       .  D
C884        C969   1.492       .  S
C889        C890   1.527       .  S
C889        C895   1.524       .  S
C889        C893   1.542       .  S
C889        C997   1.476       .  S
C890        H897   1.087       .  S
C890        C891   1.363       .  D
C891        C948   1.498       .  S
C891        C892   1.549       .  S
C892        C896   1.531       .  S
C892        C894   1.559       .  S
C892        H898   1.111       .  S
C893        H899   1.085       .  S
C893        C894   1.380       .  D
C895        H900   1.086       .  S
C895        C896   1.366       .  D
C896        C966   1.479       .  S
C901        C902   1.540       .  S
C901        C907   1.512       .  S
C901        C905   1.531       .  S
C901       C1008   1.473       .  S
C902        H909   1.084       .  S
C902        C903   1.382       .  D
C903        C904   1.570       .  S
C904        C908   1.560       .  S
C904        C906   1.564       .  S
C904        H910   1.108       .  S
C905        H911   1.086       .  S
C905        C906   1.367       .  D
C906        C949   1.518       .  S
C907        H912   1.089       .  S
C907        C908   1.349       .  D
C908        C961   1.486       .  S
O913       Ni921   1.900       .  S
O913        C923   1.274       .  A
O914      Ni2265   1.896       .  S
O914        C924   1.276   1_655  A
O915       Ni921   1.921       .  S
O915        C925   1.283       .  A
O916      Ni2265   1.931       .  S
O916        C926   1.286   1_655  A
O917       Ni922   1.894       .  S
O917        C926   1.274       .  A
O918      Ni2266   1.890       .  S
O918        C925   1.274       .  A
O919       Ni922   1.926       .  S
O919        C924   1.283       .  A
O920      Ni2266   1.929       .  S
O920        C923   1.288       .  A
Ni921      O2258   1.895       .  S
Ni921      O2260   1.930       .  S
Ni921     Ni2266   2.393       .  S
Ni922      O2262   1.886   1_455  S
Ni922      O2264   1.935   1_455  S
Ni922     Ni2265   2.393   1_455  S
C923        C962   1.477       .  S
C924        C970   1.462       .  S
C925        C965   1.452       .  S
C926        C973   1.469       .  S
N927        C932   1.354       .  A
N927        C931   1.354       .  A
N927        H959   1.045       .  S
N928        C935   1.358       .  A
N928        C936   1.355       .  A
N929        C934   1.363       .  A
N929        C933   1.360       .  A
N929        H960   1.044       .  S
N930        C937   1.358       .  A
N930        C938   1.359       .  A
C931        C939   1.380       .  A
C931        C947   1.414       .  A
C932        C948   1.405       .  A
C932        C940   1.383       .  A
C933        C941   1.382       .  A
C933        C950   1.430       .  A
C934        C949   1.423       .  A
C934        C942   1.382       .  A
C935        C947   1.424       .  A
C935        C943   1.385       .  A
C936        C950   1.426       .  A
C936        C944   1.388       .  A
C937        C945   1.380       .  A
C937        C948   1.419       .  A
C938        C946   1.380       .  A
C938        C949   1.418       .  A
C939        C940   1.369       .  A
C939        H951   1.069       .  S
C940        H952   1.082       .  S
C941        C942   1.373       .  A
C941        H953   1.067       .  S
C942        H954   1.081       .  S
C943        C944   1.383       .  A
C943        H955   1.082       .  S
C944        H956   1.082       .  S
C945        C946   1.360       .  A
C945        H957   1.070       .  S
C946        H958   1.069       .  S
C961        H963   1.088       .  S
C961        C962   1.335       .  D
C962        H964   1.085       .  S
C965        H967   1.085       .  S
C965        C966   1.335       .  D
C966        H968   1.087       .  S
C969        H971   1.084       .  S
C969        C970   1.341       .  D
C970        H972   1.084       .  S
C973        H975   1.082       .  S
C973        C974   1.358       .  D
C974        H976   1.085       .  S
C977        H979   1.086       .  S
C977        C978   1.346       .  D
C978        H980   1.084       .  S
C981        H983   1.083       .  S
C981        C982   1.349       .  D
C982        H984   1.085       .  S
C985        H987   1.085       .  S
C985        C986   1.348       .  D
C986        H988   1.083       .  S
C989        H991   1.086       .  S
C989        C990   1.346       .  D
C990        H992   1.084       .  S
C993        C994   1.212       .  T
C995        C996   1.208       .  T
C997        C998   1.211       .  T
C999       C1000   1.213       .  T
C1001      C1002   1.210       .  T
C1003      C1004   1.208       .  T
C1005      C1006   1.212       .  T
C1007      C1008   1.211       .  T
O1009     Ni1017   1.907       .  S
O1009      C1019   1.275       .  A
O1010     Ni1689   1.911   1_465  S
O1010      C1020   1.276       .  A
O1011     Ni2361   1.937   1_455  S
O1011      C1021   1.286       .  A
O1012      C1022   1.286       .  A
O1013     Ni2362   1.910       .  S
O1013      C1022   1.276       .  A
O1014      C1021   1.276       .  A
O1015     Ni1018   1.938   1_465  S
O1015      C1020   1.286       .  A
O1016     Ni1690   1.937       .  S
O1016      C1019   1.286       .  A
Ni1017     O1682   1.907       .  S
Ni1017     O2355   1.938       .  S
Ni1017    Ni1690   2.392       .  S
Ni1018     O2357   1.910   1_545  S
Ni1018     O1688   1.938       .  S
Ni1018    Ni1689   2.391       .  S
C1019      C1343   1.440       .  S
C1020      C1339   1.443       .  S
C1021      C1338   1.441       .  S
C1022      C1342   1.444       .  S
O1023     Ni1031   1.910       .  S
O1023      C1033   1.276       .  A
O1024     Ni1703   1.910   1_465  S
O1024      C1034   1.276       .  A
O1025      C1035   1.285       .  A
O1026     Ni2375   1.939   1_455  S
O1026      C1036   1.286       .  A
O1027      C1036   1.276       .  A
O1028     Ni2376   1.909       .  S
O1028      C1035   1.276       .  A
O1029     Ni1032   1.941   1_565  S
O1029      C1034   1.286       .  A
O1030     Ni1704   1.939       .  S
O1030      C1033   1.286       .  A
Ni1031     O1696   1.909       .  S
Ni1031     O2370   1.937       .  S
Ni1031    Ni1704   2.392       .  S
Ni1032     O2372   1.911   1_445  S
Ni1032     O1702   1.940   1_455  S
Ni1032    Ni1703   2.391   1_455  S
C1033      C1334   1.443       .  S
C1034      C1330   1.445       .  S
C1035      C1335   1.441       .  S
C1036      C1332   1.443       .  S
N1037      C1042   1.355       .  A
N1037      C1041   1.360       .  A
N1037      H1069   1.044       .  S
N1038      C1046   1.362       .  A
N1039      C1044   1.357       .  A
N1039      C1043   1.361       .  A
N1039      H1070   1.045       .  S
N1040      C1048   1.356       .  A
C1041      C1049   1.383       .  A
C1041      C1057   1.419       .  A
C1042      C1058   1.426       .  A
C1042      C1050   1.384       .  A
C1043      C1051   1.382       .  A
C1043      C1060   1.415       .  A
C1044      C1059   1.423       .  A
C1044      C1052   1.381       .  A
C1045      C1057   1.413       .  A
C1045      C1053   1.377       .  A
C1046      C1060   1.420       .  A
C1046      C1054   1.380       .  A
C1047      C1055   1.387       .  A
C1047      C1058   1.426       .  A
C1048      C1056   1.386       .  A
C1048      C1059   1.423       .  A
C1049      C1050   1.377       .  A
C1049      H1061   1.081       .  S
C1050      H1062   1.070       .  S
C1051      C1052   1.371       .  A
C1051      H1063   1.081       .  S
C1052      H1064   1.069       .  S
C1053      H1065   1.067       .  S
C1054      H1066   1.070       .  S
C1055      H1067   1.082       .  S
C1056      H1068   1.082       .  S
C1057      C1112   1.513       .  S
C1058      C1203   1.528       .  S
C1059      C1218   1.529       .  S
C1060      C1100   1.515       .  S
C1071      C1072   1.530       .  S
C1071      C1077   1.517       .  S
C1071      C1075   1.542       .  S
C1071      C1341   1.476       .  S
C1072      H1079   1.086       .  S
C1072      C1073   1.368       .  D
C1073      C1153   1.510       .  S
C1073      C1074   1.555       .  S
C1074      C1078   1.551       .  S
C1074      C1076   1.563       .  S
C1074      H1080   1.110       .  S
C1075      H1081   1.085       .  S
C1075      C1076   1.379       .  D
C1076      C1189   1.525       .  S
C1077      H1082   1.085       .  S
C1077      C1078   1.358       .  D
C1078      C1325   1.491       .  S
C1083      C1084   1.541       .  S
C1083      C1089   1.519       .  S
C1083      C1087   1.529       .  S
C1083      C1336   1.472       .  S
C1084      H1091   1.084       .  S
C1084      C1085   1.381       .  D
C1085      C1188   1.528       .  S
C1085      C1086   1.562       .  S
C1086      C1090   1.545       .  S
C1086      C1088   1.553       .  S
C1086      H1092   1.110       .  S
C1087      H1093   1.086       .  S
C1087      C1088   1.364       .  D
C1088      C1156   1.506       .  S
C1089      H1094   1.086       .  S
C1089      C1090   1.359       .  D
C1090      C1321   1.484       .  S
C1095      C1096   1.540       .  S
C1095      C1101   1.519       .  S
C1095      C1099   1.531       .  S
C1095      C1331   1.474       .  S
C1096      H1103   1.084       .  S
C1096      C1097   1.379       .  D
C1097      C1283   1.528       .  S
C1097      C1098   1.568       .  S
C1098      C1102   1.546       .  S
C1098      C1100   1.559       .  S
C1098      H1104   1.110       .  S
C1099      H1105   1.086       .  S
C1099      C1100   1.367       .  D
C1101      H1106   1.085       .  S
C1101      C1102   1.359       .  D
C1102      C1318   1.488       .  S
C1107      C1108   1.518       .  S
C1107      C1113   1.540       .  S
C1107      C1111   1.531       .  S
C1107      C1337   1.474       .  S
C1108      H1115   1.085       .  S
C1108      C1109   1.359       .  D
C1109      C1110   1.552       .  S
C1109      C1313   1.492       .  S
C1110      C1114   1.565       .  S
C1110      C1112   1.559       .  S
C1110      H1116   1.110       .  S
C1111      H1117   1.086       .  S
C1111      C1112   1.369       .  D
C1113      H1118   1.085       .  S
C1113      C1114   1.377       .  D
C1114      C1286   1.525       .  S
O1119     Ni1127   1.911       .  S
O1119      C1129   1.279       .  A
O1120      C1130   1.281       .  A
O1121      C1131   1.280       .  A
O1122      C1132   1.279       .  A
O1123     Ni1128   1.910       .  S
O1123      C1132   1.280       .  A
O1124      C1131   1.280       .  A
O1125      C1130   1.279       .  A
O1126      C1129   1.281       .  A
C1129      C1317   1.466       .  S
C1130      C1326   1.466       .  S
C1131      C1314   1.468       .  S
C1132      C1322   1.462       .  S
N1133      C1138   1.356       .  A
N1133      C1137   1.359       .  A
N1133      H1165   1.044       .  S
N1134      C1142   1.359       .  A
N1135      C1140   1.357       .  A
N1135      C1139   1.358       .  A
N1135      H1166   1.044       .  S
N1136      C1144   1.356       .  A
C1137      C1145   1.384       .  A
C1137      C1153   1.418       .  A
C1138      C1154   1.424       .  A
C1138      C1146   1.382       .  A
C1139      C1147   1.383       .  A
C1139      C1156   1.412       .  A
C1140      C1155   1.421       .  A
C1140      C1148   1.380       .  A
C1141      C1153   1.416       .  A
C1141      C1149   1.378       .  A
C1142      C1156   1.417       .  A
C1142      C1150   1.379       .  A
C1143      C1151   1.387       .  A
C1143      C1154   1.424       .  A
C1144      C1152   1.385       .  A
C1144      C1155   1.422       .  A
C1145      C1146   1.375       .  A
C1145      H1157   1.081       .  S
C1146      H1158   1.070       .  S
C1147      C1148   1.371       .  A
C1147      H1159   1.081       .  S
C1148      H1160   1.069       .  S
C1149      H1161   1.065       .  S
C1150      H1162   1.070       .  S
C1151      H1163   1.082       .  S
C1152      H1164   1.082       .  S
C1154      C1239   1.527       .  S
C1155      C1230   1.529       .  S
N1167      C1172   1.359       .  A
N1167      C1171   1.360       .  A
N1167      H1199   1.043       .  S
N1168      C1175   1.359       .  A
N1168      C1176   1.360       .  A
N1169      C1174   1.356       .  A
N1169      C1173   1.357       .  A
N1169      H1200   1.043       .  S
N1170      C1177   1.354       .  A
N1170      C1178   1.356       .  A
C1171      C1179   1.381       .  A
C1171      C1187   1.413       .  A
C1172      C1188   1.425       .  A
C1172      C1180   1.380       .  A
C1173      C1181   1.383       .  A
C1173      C1190   1.410       .  A
C1174      C1189   1.418       .  A
C1174      C1182   1.380       .  A
C1175      C1187   1.419       .  A
C1175      C1183   1.380       .  A
C1176      C1190   1.418       .  A
C1176      C1184   1.379       .  A
C1177      C1185   1.387       .  A
C1177      C1188   1.421       .  A
C1178      C1186   1.386       .  A
C1178      C1189   1.422       .  A
C1179      C1180   1.369       .  A
C1179      H1191   1.081       .  S
C1180      H1192   1.066       .  S
C1181      C1182   1.370       .  A
C1181      H1193   1.081       .  S
C1182      H1194   1.070       .  S
C1183      C1184   1.358       .  A
C1183      H1195   1.068       .  S
C1184      H1196   1.070       .  S
C1185      C1186   1.383       .  A
C1185      H1197   1.082       .  S
C1186      H1198   1.082       .  S
C1187      C1215   1.508       .  S
C1190      C1206   1.507       .  S
C1201      C1202   1.542       .  S
C1201      C1207   1.517       .  S
C1201      C1205   1.530       .  S
C1201      C1340   1.475       .  S
C1202      H1209   1.084       .  S
C1202      C1203   1.382       .  D
C1203      C1204   1.562       .  S
C1204      C1208   1.541       .  S
C1204      C1206   1.553       .  S
C1204      H1210   1.110       .  S
C1205      H1211   1.086       .  S
C1205      C1206   1.366       .  D
C1207      H1212   1.086       .  S
C1207      C1208   1.360       .  D
C1208      C1310   1.480       .  S
C1213      C1214   1.531       .  S
C1213      C1219   1.520       .  S
C1213      C1217   1.543       .  S
C1213      C1329   1.477       .  S
C1214      H1221   1.086       .  S
C1214      C1215   1.366       .  D
C1215      C1216   1.551       .  S
C1216      C1220   1.541       .  S
C1216      C1218   1.563       .  S
C1216      H1222   1.110       .  S
C1217      H1223   1.084       .  S
C1217      C1218   1.382       .  D
C1219      H1224   1.086       .  S
C1219      C1220   1.361       .  D
C1220      C1305   1.482       .  S
C1225      C1226   1.530       .  S
C1225      C1231   1.519       .  S
C1225      C1229   1.544       .  S
C1225      C1333   1.475       .  S
C1226      H1233   1.086       .  S
C1226      C1227   1.367       .  D
C1227      C1284   1.509       .  S
C1227      C1228   1.555       .  S
C1228      C1232   1.551       .  S
C1228      C1230   1.562       .  S
C1228      H1234   1.109       .  S
C1229      H1235   1.084       .  S
C1229      C1230   1.381       .  D
C1231      H1236   1.085       .  S
C1231      C1232   1.357       .  D
C1232      C1302   1.488       .  S
C1237      C1238   1.541       .  S
C1237      C1243   1.516       .  S
C1237      C1241   1.529       .  S
C1237      C1344   1.471       .  S
C1238      H1245   1.084       .  S
C1238      C1239   1.381       .  D
C1239      C1240   1.560       .  S
C1240      C1244   1.550       .  S
C1240      C1242   1.553       .  S
C1240      H1246   1.109       .  S
C1241      H1247   1.086       .  S
C1241      C1242   1.367       .  D
C1242      C1285   1.506       .  S
C1243      H1248   1.085       .  S
C1243      C1244   1.358       .  D
C1244      C1297   1.486       .  S
O1249     Ni1257   1.905       .  S
O1249      C1259   1.279       .  A
O1250     Ni2601   1.907   1_455  S
O1250      C1260   1.279       .  A
O1251     Ni1257   1.907       .  S
O1251      C1261   1.280       .  A
O1252     Ni2601   1.908   1_455  S
O1252      C1262   1.279       .  A
O1253     Ni1258   1.906       .  S
O1253      C1262   1.279       .  A
O1254     Ni2602   1.915       .  S
O1254      C1261   1.280       .  A
O1255     Ni1258   1.909       .  S
O1255      C1260   1.280       .  A
O1256     Ni2602   1.912       .  S
O1256      C1259   1.280       .  A
Ni1257     O2594   1.912       .  S
Ni1257     O2596   1.908       .  S
Ni1257    Ni2602   2.394       .  S
Ni1258     O2598   1.911   1_455  S
Ni1258     O2600   1.912   1_455  S
Ni1258    Ni2601   2.395   1_455  S
C1259      C1298   1.464       .  S
C1260      C1306   1.461       .  S
C1261      C1301   1.468       .  S
C1262      C1309   1.458       .  S
N1263      C1268   1.359       .  A
N1263      C1267   1.353       .  A
N1263      H1295   1.045       .  S
N1264      C1271   1.357       .  A
N1264      C1272   1.358       .  A
N1265      C1270   1.357       .  A
N1265      C1269   1.352       .  A
N1265      H1296   1.044       .  S
N1266      C1273   1.354       .  A
N1266      C1274   1.354       .  A
C1267      C1275   1.382       .  A
C1267      C1283   1.421       .  A
C1268      C1284   1.415       .  A
C1268      C1276   1.383       .  A
C1269      C1277   1.382       .  A
C1269      C1286   1.419       .  A
C1270      C1285   1.414       .  A
C1270      C1278   1.384       .  A
C1271      C1283   1.427       .  A
C1271      C1279   1.387       .  A
C1272      C1286   1.427       .  A
C1272      C1280   1.387       .  A
C1273      C1281   1.376       .  A
C1273      C1284   1.411       .  A
C1274      C1282   1.377       .  A
C1274      C1285   1.412       .  A
C1275      C1276   1.375       .  A
C1275      H1287   1.069       .  S
C1276      H1288   1.081       .  S
C1277      C1278   1.375       .  A
C1277      H1289   1.070       .  S
C1278      H1290   1.081       .  S
C1279      C1280   1.385       .  A
C1279      H1291   1.082       .  S
C1280      H1292   1.082       .  S
C1281      C1282   1.368       .  A
C1281      H1293   1.065       .  S
C1282      H1294   1.066       .  S
C1297      H1299   1.085       .  S
C1297      C1298   1.346       .  D
C1298      H1300   1.083       .  S
C1301      H1303   1.084       .  S
C1301      C1302   1.347       .  D
C1302      H1304   1.085       .  S
C1305      H1307   1.086       .  S
C1305      C1306   1.343       .  D
C1306      H1308   1.084       .  S
C1309      H1311   1.084       .  S
C1309      C1310   1.343       .  D
C1310      H1312   1.086       .  S
C1313      H1315   1.085       .  S
C1313      C1314   1.348       .  D
C1314      H1316   1.084       .  S
C1317      H1319   1.084       .  S
C1317      C1318   1.348       .  D
C1318      H1320   1.086       .  S
C1321      H1323   1.086       .  S
C1321      C1322   1.345       .  D
C1322      H1324   1.085       .  S
C1325      H1327   1.086       .  S
C1325      C1326   1.347       .  D
C1326      H1328   1.083       .  S
C1329      C1330   1.212       .  T
C1331      C1332   1.211       .  T
C1333      C1334   1.211       .  T
C1335      C1336   1.209       .  T
C1337      C1338   1.210       .  T
C1339      C1340   1.211       .  T
C1341      C1342   1.211       .  T
C1343      C1344   1.209       .  T
O1345     Ni1353   1.901   1_645  S
O1345      C1355   1.273       .  A
O1346      C1356   1.276       .  A
O1347      C1357   1.286       .  A
O1348     Ni2025   1.939   1_655  S
O1348      C1358   1.286       .  A
O1349      C1358   1.274       .  A
O1350     Ni2026   1.910       .  S
O1350      C1357   1.276       .  A
O1351     Ni1354   1.941       .  S
O1351      C1356   1.287       .  A
O1352      C1355   1.285       .  A
Ni1353     O2020   1.941   1_455  S
Ni1354     O2022   1.910       .  S
C1355      C1679   1.433       .  S
C1356      C1675   1.446       .  S
C1357      C1674   1.445       .  S
C1358      C1678   1.439       .  S
O1359     Ni1367   1.911   1_655  S
O1359      C1369   1.276       .  A
O1360      C1370   1.276       .  A
O1361     Ni2039   1.932   1_655  S
O1361      C1371   1.284       .  A
O1362      C1372   1.286       .  A
O1363     Ni2040   1.915   1_545  S
O1363      C1372   1.277       .  A
O1364      C1371   1.277       .  A
O1365     Ni1368   1.942       .  S
O1365      C1370   1.287       .  A
O1366      C1369   1.287       .  A
Ni1367     O2033   1.939   1_445  S
Ni1368     O2035   1.904       .  S
C1369      C1670   1.448       .  S
C1370      C1666   1.447       .  S
C1371      C1671   1.441       .  S
C1372      C1668   1.448       .  S
N1373      C1378   1.355       .  A
N1373      C1377   1.359       .  A
N1373      H1405   1.044       .  S
N1374      C1717   1.361   1_554  A
N1374      C1382   1.362       .  A
N1375      C1380   1.358       .  A
N1375      C1379   1.360       .  A
N1375      H1406   1.044       .  S
N1376      C1719   1.357   1_554  A
N1376      C1384   1.357       .  A
C1377      C1385   1.383       .  A
C1377      C1393   1.418       .  A
C1378      C1394   1.424       .  A
C1378      C1386   1.383       .  A
C1379      C1387   1.382       .  A
C1379      C1396   1.414       .  A
C1380      C1395   1.423       .  A
C1380      C1388   1.379       .  A
C1381      N1710   1.352       .  A
C1381      C1393   1.411       .  A
C1381      C1389   1.379       .  A
C1382      C1396   1.421       .  A
C1382      C1390   1.379       .  A
C1383      N1712   1.358       .  A
C1383      C1391   1.387       .  A
C1383      C1394   1.427       .  A
C1384      C1392   1.386       .  A
C1384      C1395   1.423       .  A
C1385      C1386   1.376       .  A
C1385      H1397   1.081       .  S
C1386      H1398   1.070       .  S
C1387      C1388   1.369       .  A
C1387      H1399   1.081       .  S
C1388      H1400   1.066       .  S
C1389      C1726   1.370       .  A
C1389      H1401   1.068       .  S
C1390      C1725   1.361   1_554  A
C1390      H1402   1.069       .  S
C1391      C1728   1.383       .  A
C1391      H1403   1.082       .  S
C1392      C1727   1.382   1_554  A
C1392      H1404   1.082       .  S
C1393      C1448   1.507       .  S
C1394      C1539   1.530       .  S
C1395      C1554   1.530       .  S
C1396      C1436   1.514       .  S
C1407      C1408   1.528       .  S
C1407      C1413   1.520       .  S
C1407      C1411   1.544       .  S
C1407      C1677   1.472       .  S
C1408      H1415   1.086       .  S
C1408      C1409   1.365       .  D
C1409      C1489   1.508       .  S
C1409      C1410   1.555       .  S
C1410      C1414   1.555       .  S
C1410      C1412   1.564       .  S
C1410      H1416   1.109       .  S
C1411      H1417   1.084       .  S
C1411      C1412   1.381       .  D
C1412      C1525   1.531       .  S
C1413      H1418   1.085       .  S
C1413      C1414   1.358       .  D
C1414      C1661   1.495       .  S
C1419      C1420   1.538       .  S
C1419      C1425   1.518       .  S
C1419      C1423   1.532       .  S
C1419      C1672   1.473       .  S
C1420      H1427   1.084       .  S
C1420      C1421   1.378       .  D
C1421      C1524   1.526       .  S
C1421      C1422   1.565       .  S
C1422      C1426   1.544       .  S
C1422      C1424   1.557       .  S
C1422      H1428   1.110       .  S
C1423      H1429   1.086       .  S
C1423      C1424   1.367       .  D
C1424      C1492   1.511       .  S
C1425      H1430   1.086       .  S
C1425      C1426   1.360       .  D
C1426      C1657   1.483       .  S
C1431      C1432   1.543       .  S
C1431      C1437   1.519       .  S
C1431      C1435   1.532       .  S
C1431      C1667   1.479       .  S
C1432      H1439   1.084       .  S
C1432      C1433   1.382       .  D
C1433      C1619   1.532       .  S
C1433      C1434   1.566       .  S
C1434      C1438   1.544       .  S
C1434      C1436   1.556       .  S
C1434      H1440   1.110       .  S
C1435      H1441   1.086       .  S
C1435      C1436   1.367       .  D
C1437      H1442   1.085       .  S
C1437      C1438   1.360       .  D
C1438      C1654   1.485       .  S
C1443      C1444   1.516       .  S
C1443      C1449   1.544       .  S
C1443      C1447   1.530       .  S
C1443      C1673   1.477       .  S
C1444      H1451   1.085       .  S
C1444      C1445   1.358       .  D
C1445      C1446   1.554       .  S
C1445      C1649   1.489       .  S
C1446      C1450   1.560       .  S
C1446      C1448   1.550       .  S
C1446      H1452   1.108       .  S
C1447      H1453   1.086       .  S
C1447      C1448   1.367       .  D
C1449      H1454   1.084       .  S
C1449      C1450   1.383       .  D
C1450      C1622   1.530       .  S
O1455     Ni1463   1.909       .  S
O1455      C1465   1.279       .  A
O1456     Ni2471   1.919       .  S
O1456      C1466   1.282       .  A
O1457     Ni1799   1.905       .  S
O1457      C1467   1.279       .  A
O1458     Ni2135   1.912       .  S
O1458      C1468   1.280       .  A
O1459     Ni1464   1.907       .  S
O1459      C1468   1.279       .  A
O1460     Ni2472   1.915       .  S
O1460      C1467   1.281   1_565  A
O1461     Ni1800   1.913       .  S
O1461      C1466   1.280       .  A
O1462     Ni2136   1.910   1_545  S
O1462      C1465   1.280       .  A
Ni1463     O2464   1.910   1_544  S
Ni1463     O1793   1.908   1_554  S
Ni1463     O2130   1.913   1_545  S
Ni1463    Ni2136   2.394   1_545  S
Ni1464     O2468   1.910   1_554  S
Ni1464     O1797   1.909   1_554  S
Ni1464     O2134   1.914       .  S
Ni1464    Ni2135   2.394       .  S
C1465      C1653   1.463       .  S
C1466      C1662   1.473       .  S
C1467      C1650   1.466       .  S
C1468      C1658   1.462       .  S
N1469      C1474   1.355       .  A
N1469      C1473   1.358       .  A
N1469      H1501   1.045       .  S
N1470      C1813   1.359       .  A
N1470      C1478   1.359   1_556  A
N1471      C1476   1.358       .  A
N1471      C1475   1.360       .  A
N1471      H1502   1.045       .  S
N1472      C1815   1.355       .  A
N1472      C1480   1.356   1_556  A
C1473      C1481   1.384       .  A
C1473      C1489   1.418       .  A
C1474      C1490   1.423       .  A
C1474      C1482   1.382       .  A
C1475      C1483   1.382       .  A
C1475      C1492   1.413       .  A
C1476      C1491   1.422       .  A
C1476      C1484   1.379       .  A
C1477      N1806   1.353       .  A
C1477      C1489   1.412       .  A
C1477      C1485   1.377       .  A
C1478      C1492   1.419       .  A
C1478      C1486   1.381       .  A
C1479      N1808   1.356       .  A
C1479      C1487   1.388       .  A
C1479      C1490   1.428       .  A
C1480      C1488   1.385       .  A
C1480      C1491   1.422       .  A
C1481      C1482   1.378       .  A
C1481      H1493   1.081       .  S
C1482      H1494   1.072       .  S
C1483      C1484   1.372       .  A
C1483      H1495   1.081       .  S
C1484      H1496   1.070       .  S
C1485      C1822   1.368       .  A
C1485      H1497   1.065       .  S
C1486      C1821   1.360   1_554  A
C1486      H1498   1.070       .  S
C1487      C1824   1.384       .  A
C1487      H1499   1.082       .  S
C1488      C1823   1.384   1_554  A
C1488      H1500   1.082       .  S
C1490      C1575   1.529       .  S
C1491      C1566   1.531       .  S
N1503      C1508   1.353       .  A
N1503      C1507   1.360       .  A
N1503      H1535   1.044       .  S
N1504      C1511   1.355       .  A
N1504      C1512   1.354       .  A
N1505      C1510   1.355       .  A
N1505      C1509   1.359       .  A
N1505      H1536   1.044       .  S
N1506      C1513   1.357       .  A
N1506      C1514   1.359       .  A
C1507      C1515   1.382       .  A
C1507      C1523   1.415       .  A
C1508      C1524   1.423       .  A
C1508      C1516   1.383       .  A
C1509      C1517   1.382       .  A
C1509      C1526   1.414       .  A
C1510      C1525   1.422       .  A
C1510      C1518   1.382       .  A
C1511      C1523   1.412       .  A
C1511      C1519   1.375       .  A
C1512      C1526   1.411       .  A
C1512      C1520   1.376       .  A
C1513      C1521   1.387       .  A
C1513      C1524   1.428       .  A
C1514      C1522   1.386       .  A
C1514      C1525   1.427       .  A
C1515      C1516   1.376       .  A
C1515      H1527   1.081       .  S
C1516      H1528   1.069       .  S
C1517      C1518   1.373       .  A
C1517      H1529   1.081       .  S
C1518      H1530   1.068       .  S
C1519      C1520   1.367       .  A
C1519      H1531   1.065       .  S
C1520      H1532   1.066       .  S
C1521      C1522   1.384       .  A
C1521      H1533   1.082       .  S
C1522      H1534   1.082       .  S
C1523      C1551   1.512       .  S
C1526      C1542   1.509       .  S
C1537      C1538   1.544       .  S
C1537      C1543   1.515       .  S
C1537      C1541   1.531       .  S
C1537      C1676   1.478       .  S
C1538      H1545   1.084       .  S
C1538      C1539   1.381       .  D
C1539      C1540   1.561       .  S
C1540      C1544   1.550       .  S
C1540      C1542   1.554       .  S
C1540      H1546   1.109       .  S
C1541      H1547   1.086       .  S
C1541      C1542   1.369       .  D
C1543      H1548   1.085       .  S
C1543      C1544   1.358       .  D
C1544      C1646   1.486       .  S
C1549      C1550   1.533       .  S
C1549      C1555   1.517       .  S
C1549      C1553   1.544       .  S
C1549      C1665   1.478       .  S
C1550      H1557   1.086       .  S
C1550      C1551   1.369       .  D
C1551      C1552   1.556       .  S
C1552      C1556   1.551       .  S
C1552      C1554   1.563       .  S
C1552      H1558   1.109       .  S
C1553      H1559   1.084       .  S
C1553      C1554   1.381       .  D
C1555      H1560   1.086       .  S
C1555      C1556   1.357       .  D
C1556      C1641   1.488       .  S
C1561      C1562   1.528       .  S
C1561      C1567   1.523       .  S
C1561      C1565   1.547       .  S
C1561      C1669   1.481       .  S
C1562      H1569   1.087       .  S
C1562      C1563   1.364       .  D
C1563      C1620   1.509       .  S
C1563      C1564   1.556       .  S
C1564      C1568   1.538       .  S
C1564      C1566   1.565       .  S
C1564      H1570   1.110       .  S
C1565      H1571   1.085       .  S
C1565      C1566   1.382       .  D
C1567      H1572   1.085       .  S
C1567      C1568   1.364       .  D
C1568      C1638   1.486       .  S
C1573      C1574   1.536       .  S
C1573      C1579   1.510       .  S
C1573      C1577   1.527       .  S
C1573      C1680   1.463       .  S
C1574      H1581   1.084       .  S
C1574      C1575   1.380       .  D
C1575      C1576   1.569       .  S
C1576      C1580   1.562       .  S
C1576      C1578   1.559       .  S
C1576      H1582   1.107       .  S
C1577      H1583   1.086       .  S
C1577      C1578   1.366       .  D
C1578      C1621   1.515       .  S
C1579      H1584   1.089       .  S
C1579      C1580   1.348       .  D
C1580      C1633   1.481       .  S
O1585     Ni1593   1.892       .  S
O1585      C1595   1.272       .  A
O1586      C1596   1.280       .  A
O1587     Ni1593   1.924       .  S
O1587      C1597   1.283       .  A
O1588      C1598   1.280       .  A
O1589     Ni1594   1.906       .  S
O1589      C1598   1.279       .  A
O1590      C1597   1.275       .  A
O1591     Ni1594   1.908       .  S
O1591      C1596   1.280       .  A
O1592      C1595   1.289       .  A
C1595      C1634   1.471       .  S
C1596      C1642   1.465       .  S
C1597      C1637   1.460       .  S
C1598      C1645   1.463       .  S
N1599      C1604   1.357       .  A
N1599      C1603   1.357       .  A
N1599      H1631   1.044       .  S
N1600      C1607   1.358       .  A
N1600      C1608   1.355       .  A
N1601      C1606   1.362       .  A
N1601      C1605   1.360       .  A
N1601      H1632   1.043       .  S
N1602      C1609   1.359       .  A
N1602      C1610   1.360       .  A
C1603      C1611   1.380       .  A
C1603      C1619   1.421       .  A
C1604      C1620   1.414       .  A
C1604      C1612   1.384       .  A
C1605      C1613   1.381       .  A
C1605      C1622   1.428       .  A
C1606      C1621   1.422       .  A
C1606      C1614   1.384       .  A
C1607      C1619   1.423       .  A
C1607      C1615   1.385       .  A
C1608      C1622   1.424       .  A
C1608      C1616   1.387       .  A
C1609      C1617   1.381       .  A
C1609      C1620   1.423       .  A
C1610      C1618   1.379       .  A
C1610      C1621   1.419       .  A
C1611      C1612   1.371       .  A
C1611      H1623   1.069       .  S
C1612      H1624   1.081       .  S
C1613      C1614   1.369       .  A
C1613      H1625   1.069       .  S
C1614      H1626   1.080       .  S
C1615      C1616   1.382       .  A
C1615      H1627   1.082       .  S
C1616      H1628   1.082       .  S
C1617      C1618   1.363       .  A
C1617      H1629   1.066       .  S
C1618      H1630   1.072       .  S
C1633      H1635   1.088       .  S
C1633      C1634   1.330       .  D
C1634      H1636   1.085       .  S
C1637      H1639   1.084       .  S
C1637      C1638   1.339       .  D
C1638      H1640   1.086       .  S
C1641      H1643   1.085       .  S
C1641      C1642   1.346       .  D
C1642      H1644   1.084       .  S
C1645      H1647   1.083       .  S
C1645      C1646   1.345       .  D
C1646      H1648   1.085       .  S
C1649      H1651   1.085       .  S
C1649      C1650   1.348       .  D
C1650      H1652   1.083       .  S
C1653      H1655   1.084       .  S
C1653      C1654   1.345       .  D
C1654      H1656   1.086       .  S
C1657      H1659   1.086       .  S
C1657      C1658   1.345       .  D
C1658      H1660   1.084       .  S
C1661      H1663   1.085       .  S
C1661      C1662   1.349       .  D
C1662      H1664   1.083       .  S
C1665      C1666   1.213       .  T
C1667      C1668   1.213       .  T
C1669      C1670   1.214       .  T
C1671      C1672   1.210       .  T
C1673      C1674   1.212       .  T
C1675      C1676   1.213       .  T
C1677      C1678   1.209       .  T
C1679      C1680   1.205       .  T
O1681     Ni1689   1.912       .  S
O1681      C1691   1.277       .  A
O1682      C1692   1.275       .  A
O1683      C1693   1.286       .  A
O1684     Ni2361   1.936       .  S
O1684      C1694   1.286       .  A
O1685      C1694   1.275       .  A
O1686     Ni2362   1.909   1_545  S
O1686      C1693   1.276       .  A
O1687     Ni1690   1.938       .  S
O1687      C1692   1.286       .  A
O1688      C1691   1.286       .  A
Ni1689     O2356   1.934   1_545  S
Ni1690     O2358   1.908       .  S
C1691      C2015   1.444       .  S
C1692      C2011   1.441       .  S
C1693      C2010   1.443       .  S
C1694      C2014   1.439       .  S
O1695     Ni1703   1.910       .  S
O1695      C1705   1.276       .  A
O1696      C1706   1.276       .  A
O1697     Ni2375   1.938       .  S
O1697      C1707   1.286       .  A
O1698      C1708   1.286       .  A
O1699     Ni2376   1.909   1_545  S
O1699      C1708   1.276       .  A
O1700      C1707   1.275       .  A
O1701     Ni1704   1.937       .  S
O1701      C1706   1.286       .  A
O1702      C1705   1.286       .  A
Ni1703     O2369   1.937   1_545  S
Ni1704     O2371   1.911       .  S
C1705      C2006   1.444       .  S
C1706      C2002   1.442       .  S
C1707      C2007   1.442       .  S
C1708      C2004   1.442       .  S
N1709      C1714   1.359       .  A
N1709      C1713   1.360       .  A
N1709      H1741   1.044       .  S
N1710      C1718   1.353       .  A
N1711      C1716   1.353       .  A
N1711      C1715   1.359       .  A
N1711      H1742   1.045       .  S
N1712      C1720   1.358       .  A
C1713      C1721   1.382       .  A
C1713      C1729   1.417       .  A
C1714      C1730   1.426       .  A
C1714      C1722   1.381       .  A
C1715      C1723   1.383       .  A
C1715      C1732   1.416       .  A
C1716      C1731   1.421       .  A
C1716      C1724   1.383       .  A
C1717      C1729   1.423       .  A
C1717      C1725   1.380       .  A
C1718      C1732   1.410       .  A
C1718      C1726   1.377       .  A
C1719      C1727   1.387       .  A
C1719      C1730   1.425       .  A
C1720      C1728   1.386       .  A
C1720      C1731   1.427       .  A
C1721      C1722   1.370       .  A
C1721      H1733   1.081       .  S
C1722      H1734   1.068       .  S
C1723      C1724   1.375       .  A
C1723      H1735   1.081       .  S
C1724      H1736   1.070       .  S
C1725      H1737   1.067       .  S
C1726      H1738   1.068       .  S
C1727      H1739   1.082       .  S
C1728      H1740   1.082       .  S
C1729      C1784   1.515       .  S
C1730      C1875   1.533       .  S
C1731      C1890   1.527       .  S
C1732      C1772   1.509       .  S
C1743      C1744   1.530       .  S
C1743      C1749   1.518       .  S
C1743      C1747   1.540       .  S
C1743      C2013   1.470       .  S
C1744      H1751   1.086       .  S
C1744      C1745   1.365       .  D
C1745      C1825   1.506       .  S
C1745      C1746   1.552       .  S
C1746      C1750   1.547       .  S
C1746      C1748   1.564       .  S
C1746      H1752   1.109       .  S
C1747      H1753   1.084       .  S
C1747      C1748   1.381       .  D
C1748      C1861   1.528       .  S
C1749      H1754   1.085       .  S
C1749      C1750   1.358       .  D
C1750      C1997   1.487       .  S
C1755      C1756   1.543       .  S
C1755      C1761   1.517       .  S
C1755      C1759   1.528       .  S
C1755      C2008   1.474       .  S
C1756      H1763   1.084       .  S
C1756      C1757   1.381       .  D
C1757      C1860   1.529       .  S
C1757      C1758   1.563       .  S
C1758      C1762   1.552       .  S
C1758      C1760   1.555       .  S
C1758      H1764   1.109       .  S
C1759      H1765   1.086       .  S
C1759      C1760   1.366       .  D
C1760      C1828   1.506       .  S
C1761      H1766   1.085       .  S
C1761      C1762   1.358       .  D
C1762      C1993   1.491       .  S
C1767      C1768   1.543       .  S
C1767      C1773   1.518       .  S
C1767      C1771   1.531       .  S
C1767      C2003   1.474       .  S
C1768      H1775   1.084       .  S
C1768      C1769   1.380       .  D
C1769      C1955   1.529       .  S
C1769      C1770   1.563       .  S
C1770      C1774   1.551       .  S
C1770      C1772   1.553       .  S
C1770      H1776   1.109       .  S
C1771      H1777   1.086       .  S
C1771      C1772   1.368       .  D
C1773      H1778   1.086       .  S
C1773      C1774   1.357       .  D
C1774      C1990   1.488       .  S
C1779      C1780   1.518       .  S
C1779      C1785   1.542       .  S
C1779      C1783   1.530       .  S
C1779      C2009   1.475       .  S
C1780      H1787   1.085       .  S
C1780      C1781   1.359       .  D
C1781      C1782   1.548       .  S
C1781      C1985   1.487       .  S
C1782      C1786   1.568       .  S
C1782      C1784   1.559       .  S
C1782      H1788   1.109       .  S
C1783      H1789   1.086       .  S
C1783      C1784   1.366       .  D
C1785      H1790   1.084       .  S
C1785      C1786   1.381       .  D
C1786      C1958   1.534       .  S
O1791     Ni1799   1.906       .  S
O1791      C1801   1.279       .  A
O1792     Ni2135   1.913   1_556  S
O1792      C1802   1.280       .  A
O1793      C1803   1.279       .  A
O1794     Ni2471   1.913       .  S
O1794      C1804   1.280       .  A
O1795     Ni1800   1.910       .  S
O1795      C1804   1.280       .  A
O1796     Ni2136   1.914   1_546  S
O1796      C1803   1.281       .  A
O1797      C1802   1.279       .  A
O1798     Ni2472   1.918       .  S
O1798      C1801   1.281   1_565  A
Ni1799     O2128   1.912   1_545  S
Ni1799     O2466   1.907   1_545  S
Ni1799    Ni2472   2.393   1_545  S
Ni1800     O2132   1.913       .  S
Ni1800     O2470   1.918       .  S
Ni1800    Ni2471   2.392       .  S
C1801      C1989   1.468       .  S
C1802      C1998   1.465       .  S
C1803      C1986   1.465       .  S
C1804      C1994   1.467       .  S
N1805      C1810   1.357       .  A
N1805      C1809   1.358       .  A
N1805      H1837   1.044       .  S
N1806      C1814   1.354       .  A
N1807      C1812   1.352       .  A
N1807      C1811   1.357       .  A
N1807      H1838   1.045       .  S
N1808      C1816   1.357       .  A
C1809      C1817   1.382       .  A
C1809      C1825   1.412       .  A
C1810      C1826   1.422       .  A
C1810      C1818   1.380       .  A
C1811      C1819   1.384       .  A
C1811      C1828   1.413       .  A
C1812      C1827   1.418       .  A
C1812      C1820   1.382       .  A
C1813      C1825   1.418       .  A
C1813      C1821   1.380       .  A
C1814      C1828   1.411       .  A
C1814      C1822   1.376       .  A
C1815      C1823   1.387       .  A
C1815      C1826   1.425       .  A
C1816      C1824   1.385       .  A
C1816      C1827   1.424       .  A
C1817      C1818   1.372       .  A
C1817      H1829   1.081       .  S
C1818      H1830   1.068       .  S
C1819      C1820   1.376       .  A
C1819      H1831   1.081       .  S
C1820      H1832   1.070       .  S
C1821      H1833   1.071       .  S
C1822      H1834   1.066       .  S
C1823      H1835   1.082       .  S
C1824      H1836   1.082       .  S
C1826      C1911   1.528       .  S
C1827      C1902   1.525       .  S
N1839      C1844   1.358       .  A
N1839      C1843   1.359       .  A
N1839      H1871   1.044       .  S
N1840      C1847   1.360       .  A
N1840      C1848   1.360       .  A
N1841      C1846   1.359       .  A
N1841      C1845   1.360       .  A
N1841      H1872   1.044       .  S
N1842      C1849   1.356       .  A
N1842      C1850   1.355       .  A
C1843      C1851   1.382       .  A
C1843      C1859   1.414       .  A
C1844      C1860   1.423       .  A
C1844      C1852   1.380       .  A
C1845      C1853   1.382       .  A
C1845      C1862   1.414       .  A
C1846      C1861   1.424       .  A
C1846      C1854   1.381       .  A
C1847      C1859   1.420       .  A
C1847      C1855   1.380       .  A
C1848      C1862   1.420       .  A
C1848      C1856   1.380       .  A
C1849      C1857   1.386       .  A
C1849      C1860   1.422       .  A
C1850      C1858   1.387       .  A
C1850      C1861   1.423       .  A
C1851      C1852   1.370       .  A
C1851      H1863   1.081       .  S
C1852      H1864   1.068       .  S
C1853      C1854   1.368       .  A
C1853      H1865   1.081       .  S
C1854      H1866   1.067       .  S
C1855      C1856   1.359       .  A
C1855      H1867   1.071       .  S
C1856      H1868   1.069       .  S
C1857      C1858   1.382       .  A
C1857      H1869   1.082       .  S
C1858      H1870   1.082       .  S
C1859      C1887   1.509       .  S
C1862      C1878   1.510       .  S
C1873      C1874   1.542       .  S
C1873      C1879   1.519       .  S
C1873      C1877   1.529       .  S
C1873      C2012   1.473       .  S
C1874      H1881   1.084       .  S
C1874      C1875   1.382       .  D
C1875      C1876   1.566       .  S
C1876      C1880   1.546       .  S
C1876      C1878   1.554       .  S
C1876      H1882   1.109       .  S
C1877      H1883   1.086       .  S
C1877      C1878   1.365       .  D
C1879      H1884   1.085       .  S
C1879      C1880   1.359       .  D
C1880      C1982   1.485       .  S
C1885      C1886   1.529       .  S
C1885      C1891   1.520       .  S
C1885      C1889   1.541       .  S
C1885      C2001   1.474       .  S
C1886      H1893   1.086       .  S
C1886      C1887   1.365       .  D
C1887      C1888   1.555       .  S
C1888      C1892   1.545       .  S
C1888      C1890   1.565       .  S
C1888      H1894   1.110       .  S
C1889      H1895   1.084       .  S
C1889      C1890   1.380       .  D
C1891      H1896   1.086       .  S
C1891      C1892   1.361       .  D
C1892      C1977   1.486       .  S
C1897      C1898   1.530       .  S
C1897      C1903   1.516       .  S
C1897      C1901   1.543       .  S
C1897      C2005   1.476       .  S
C1898      H1905   1.086       .  S
C1898      C1899   1.369       .  D
C1899      C1956   1.510       .  S
C1899      C1900   1.557       .  S
C1900      C1904   1.550       .  S
C1900      C1902   1.563       .  S
C1900      H1906   1.110       .  S
C1901      H1907   1.085       .  S
C1901      C1902   1.379       .  D
C1903      H1908   1.085       .  S
C1903      C1904   1.358       .  D
C1904      C1974   1.489       .  S
C1909      C1910   1.541       .  S
C1909      C1915   1.517       .  S
C1909      C1913   1.531       .  S
C1909      C2016   1.476       .  S
C1910      H1917   1.085       .  S
C1910      C1911   1.379       .  D
C1911      C1912   1.564       .  S
C1912      C1916   1.551       .  S
C1912      C1914   1.557       .  S
C1912      H1918   1.110       .  S
C1913      H1919   1.086       .  S
C1913      C1914   1.369       .  D
C1914      C1957   1.512       .  S
C1915      H1920   1.085       .  S
C1915      C1916   1.358       .  D
C1916      C1969   1.488       .  S
O1921     Ni1929   1.906       .  S
O1921      C1931   1.279       .  A
O1922      C1932   1.280       .  A
O1923     Ni1929   1.908       .  S
O1923      C1933   1.279       .  A
O1924      C1934   1.280       .  A
O1925     Ni1930   1.907       .  S
O1925      C1934   1.279       .  A
O1926      C1933   1.280       .  A
O1927     Ni1930   1.912       .  S
O1927      C1932   1.280       .  A
O1928      C1931   1.280       .  A
C1931      C1970   1.465       .  S
C1932      C1978   1.464       .  S
C1933      C1973   1.464       .  S
C1934      C1981   1.464       .  S
N1935      C1940   1.359       .  A
N1935      C1939   1.353       .  A
N1935      H1967   1.044       .  S
N1936      C1943   1.359       .  A
N1936      C1944   1.359       .  A
N1937      C1942   1.360       .  A
N1937      C1941   1.356       .  A
N1937      H1968   1.044       .  S
N1938      C1945   1.354       .  A
N1938      C1946   1.354       .  A
C1939      C1947   1.382       .  A
C1939      C1955   1.421       .  A
C1940      C1956   1.416       .  A
C1940      C1948   1.383       .  A
C1941      C1949   1.383       .  A
C1941      C1958   1.425       .  A
C1942      C1957   1.418       .  A
C1942      C1950   1.383       .  A
C1943      C1955   1.428       .  A
C1943      C1951   1.386       .  A
C1944      C1958   1.430       .  A
C1944      C1952   1.387       .  A
C1945      C1953   1.377       .  A
C1945      C1956   1.413       .  A
C1946      C1954   1.378       .  A
C1946      C1957   1.413       .  A
C1947      C1948   1.375       .  A
C1947      H1959   1.070       .  S
C1948      H1960   1.081       .  S
C1949      C1950   1.375       .  A
C1949      H1961   1.069       .  S
C1950      H1962   1.081       .  S
C1951      C1952   1.384       .  A
C1951      H1963   1.082       .  S
C1952      H1964   1.082       .  S
C1953      C1954   1.371       .  A
C1953      H1965   1.067       .  S
C1954      H1966   1.068       .  S
C1969      H1971   1.085       .  S
C1969      C1970   1.347       .  D
C1970      H1972   1.084       .  S
C1973      H1975   1.083       .  S
C1973      C1974   1.346       .  D
C1974      H1976   1.085       .  S
C1977      H1979   1.086       .  S
C1977      C1978   1.346       .  D
C1978      H1980   1.084       .  S
C1981      H1983   1.084       .  S
C1981      C1982   1.346       .  D
C1982      H1984   1.086       .  S
C1985      H1987   1.086       .  S
C1985      C1986   1.347       .  D
C1986      H1988   1.083       .  S
C1989      H1991   1.084       .  S
C1989      C1990   1.348       .  D
C1990      H1992   1.085       .  S
C1993      H1995   1.085       .  S
C1993      C1994   1.347       .  D
C1994      H1996   1.083       .  S
C1997      H1999   1.086       .  S
C1997      C1998   1.347       .  D
C1998      H2000   1.084       .  S
C2001      C2002   1.210       .  T
C2003      C2004   1.210       .  T
C2005      C2006   1.211       .  T
C2007      C2008   1.210       .  T
C2009      C2010   1.211       .  T
C2011      C2012   1.210       .  T
C2013      C2014   1.208       .  T
C2015      C2016   1.211       .  T
O2017     Ni2025   1.910   1_655  S
O2017      C2027   1.276       .  A
O2018      C2028   1.275       .  A
O2019      C2029   1.286       .  A
O2020      C2030   1.287       .  A
O2021      C2030   1.276       .  A
O2022      C2029   1.275       .  A
O2023     Ni2026   1.936   1_565  S
O2023      C2028   1.285       .  A
O2024      C2027   1.286       .  A
C2027      C2351   1.444       .  S
C2028      C2347   1.439       .  S
C2029      C2346   1.443       .  S
C2030      C2350   1.445       .  S
O2031     Ni2039   1.919   1_655  S
O2031      C2041   1.278       .  A
O2032      C2042   1.277       .  A
O2033      C2043   1.286       .  A
O2034      C2044   1.285       .  A
O2035      C2044   1.275       .  A
O2036      C2043   1.276       .  A
O2037     Ni2040   1.940       .  S
O2037      C2042   1.286       .  A
O2038      C2041   1.286       .  A
C2041      C2342   1.450       .  S
C2042      C2338   1.446       .  S
C2043      C2343   1.443       .  S
C2044      C2340   1.436       .  S
N2045      C2050   1.359       .  A
N2045      C2049   1.357       .  A
N2045      H2077   1.044       .  S
N2046      C2389   1.353   1_554  A
N2046      C2054   1.355       .  A
N2047      C2052   1.353       .  A
N2047      C2051   1.358       .  A
N2047      H2078   1.044       .  S
N2048      C2391   1.357   1_554  A
N2048      C2056   1.358       .  A
C2049      C2057   1.383       .  A
C2049      C2065   1.415       .  A
C2050      C2066   1.424       .  A
C2050      C2058   1.382       .  A
C2051      C2059   1.384       .  A
C2051      C2068   1.416       .  A
C2052      C2067   1.421       .  A
C2052      C2060   1.382       .  A
C2053      N2382   1.359       .  A
C2053      C2065   1.419       .  A
C2053      C2061   1.380       .  A
C2054      C2068   1.414       .  A
C2054      C2062   1.378       .  A
C2055      N2384   1.357       .  A
C2055      C2063   1.387       .  A
C2055      C2066   1.427       .  A
C2056      C2064   1.386       .  A
C2056      C2067   1.426       .  A
C2057      C2058   1.372       .  A
C2057      H2069   1.081       .  S
C2058      H2070   1.071       .  S
C2059      C2060   1.375       .  A
C2059      H2071   1.080       .  S
C2060      H2072   1.070       .  S
C2061      C2398   1.358       .  A
C2061      H2073   1.070       .  S
C2062      C2397   1.372   1_554  A
C2062      H2074   1.069       .  S
C2063      C2400   1.382       .  A
C2063      H2075   1.082       .  S
C2064      C2399   1.382   1_554  A
C2064      H2076   1.082       .  S
C2065      C2120   1.506       .  S
C2066      C2211   1.531       .  S
C2067      C2226   1.527       .  S
C2068      C2108   1.509       .  S
C2079      C2080   1.530       .  S
C2079      C2085   1.521       .  S
C2079      C2083   1.542       .  S
C2079      C2349   1.477       .  S
C2080      H2087   1.086       .  S
C2080      C2081   1.365       .  D
C2081      C2161   1.510       .  S
C2081      C2082   1.556       .  S
C2082      C2086   1.547       .  S
C2082      C2084   1.567       .  S
C2082      H2088   1.110       .  S
C2083      H2089   1.084       .  S
C2083      C2084   1.381       .  D
C2084      C2197   1.533       .  S
C2085      H2090   1.085       .  S
C2085      C2086   1.362       .  D
C2086      C2333   1.490       .  S
C2091      C2092   1.543       .  S
C2091      C2097   1.517       .  S
C2091      C2095   1.531       .  S
C2091      C2344   1.475       .  S
C2092      H2099   1.084       .  S
C2092      C2093   1.380       .  D
C2093      C2196   1.531       .  S
C2093      C2094   1.565       .  S
C2094      C2098   1.553       .  S
C2094      C2096   1.555       .  S
C2094      H2100   1.109       .  S
C2095      H2101   1.086       .  S
C2095      C2096   1.368       .  D
C2096      C2164   1.511       .  S
C2097      H2102   1.085       .  S
C2097      C2098   1.358       .  D
C2098      C2329   1.491       .  S
C2103      C2104   1.539       .  S
C2103      C2109   1.517       .  S
C2103      C2107   1.527       .  S
C2103      C2339   1.467       .  S
C2104      H2111   1.084       .  S
C2104      C2105   1.377       .  D
C2105      C2291   1.528       .  S
C2105      C2106   1.567       .  S
C2106      C2110   1.553       .  S
C2106      C2108   1.556       .  S
C2106      H2112   1.109       .  S
C2107      H2113   1.086       .  S
C2107      C2108   1.367       .  D
C2109      H2114   1.085       .  S
C2109      C2110   1.359       .  D
C2110      C2326   1.490       .  S
C2115      C2116   1.519       .  S
C2115      C2121   1.543       .  S
C2115      C2119   1.528       .  S
C2115      C2345   1.474       .  S
C2116      H2123   1.086       .  S
C2116      C2117   1.359       .  D
C2117      C2118   1.547       .  S
C2117      C2321   1.486       .  S
C2118      C2122   1.562       .  S
C2118      C2120   1.554       .  S
C2118      H2124   1.109       .  S
C2119      H2125   1.086       .  S
C2119      C2120   1.364       .  D
C2121      H2126   1.084       .  S
C2121      C2122   1.384       .  D
C2122      C2294   1.531       .  S
O2127     Ni2135   1.909       .  S
O2127      C2137   1.280       .  A
O2128      C2138   1.280       .  A
O2129     Ni2471   1.911       .  S
O2129      C2139   1.280       .  A
O2130      C2140   1.280       .  A
O2131     Ni2136   1.910       .  S
O2131      C2140   1.280       .  A
O2132      C2139   1.280       .  A
O2133     Ni2472   1.914       .  S
O2133      C2138   1.280       .  A
O2134      C2137   1.281       .  A
Ni2135     O2465   1.910   1_554  S
Ni2136     O2469   1.908   1_554  S
C2137      C2325   1.467       .  S
C2138      C2334   1.467       .  S
C2139      C2322   1.465       .  S
C2140      C2330   1.467       .  S
N2141      C2146   1.359       .  A
N2141      C2145   1.360       .  A
N2141      H2173   1.044       .  S
N2142      C2485   1.355   1_554  A
N2142      C2150   1.355       .  A
N2143      C2148   1.353       .  A
N2143      C2147   1.359       .  A
N2143      H2174   1.045       .  S
N2144      C2487   1.355       .  A
N2144      C2152   1.355   1_556  A
C2145      C2153   1.382       .  A
C2145      C2161   1.415       .  A
C2146      C2162   1.423       .  A
C2146      C2154   1.379       .  A
C2147      C2155   1.383       .  A
C2147      C2164   1.414       .  A
C2148      C2163   1.420       .  A
C2148      C2156   1.380       .  A
C2149      N2478   1.359       .  A
C2149      C2161   1.420       .  A
C2149      C2157   1.382       .  A
C2150      C2164   1.413       .  A
C2150      C2158   1.376       .  A
C2151      N2480   1.355       .  A
C2151      C2159   1.388       .  A
C2151      C2162   1.426       .  A
C2152      C2160   1.385       .  A
C2152      C2163   1.419       .  A
C2153      C2154   1.371       .  A
C2153      H2165   1.081       .  S
C2154      H2166   1.070       .  S
C2155      C2156   1.375       .  A
C2155      H2167   1.080       .  S
C2156      H2168   1.070       .  S
C2157      C2494   1.361       .  A
C2157      H2169   1.071       .  S
C2158      C2493   1.367   1_554  A
C2158      H2170   1.064       .  S
C2159      C2496   1.384       .  A
C2159      H2171   1.082       .  S
C2160      C2495   1.383   1_554  A
C2160      H2172   1.082       .  S
C2162      C2247   1.533       .  S
C2163      C2238   1.523       .  S
N2175      C2180   1.354       .  A
N2175      C2179   1.359       .  A
N2175      H2207   1.044       .  S
N2176      C2183   1.355       .  A
N2176      C2184   1.356       .  A
N2177      C2182   1.357       .  A
N2177      C2181   1.361       .  A
N2177      H2208   1.044       .  S
N2178      C2185   1.359       .  A
N2178      C2186   1.358       .  A
C2179      C2187   1.382       .  A
C2179      C2195   1.414       .  A
C2180      C2196   1.423       .  A
C2180      C2188   1.382       .  A
C2181      C2189   1.383       .  A
C2181      C2198   1.420       .  A
C2182      C2197   1.427       .  A
C2182      C2190   1.383       .  A
C2183      C2195   1.414       .  A
C2183      C2191   1.375       .  A
C2184      C2198   1.412       .  A
C2184      C2192   1.378       .  A
C2185      C2193   1.387       .  A
C2185      C2196   1.429       .  A
C2186      C2194   1.387       .  A
C2186      C2197   1.429       .  A
C2187      C2188   1.373       .  A
C2187      H2199   1.081       .  S
C2188      H2200   1.068       .  S
C2189      C2190   1.375       .  A
C2189      H2201   1.081       .  S
C2190      H2202   1.068       .  S
C2191      C2192   1.367       .  A
C2191      H2203   1.062       .  S
C2192      H2204   1.070       .  S
C2193      C2194   1.384       .  A
C2193      H2205   1.082       .  S
C2194      H2206   1.082       .  S
C2195      C2223   1.511       .  S
C2198      C2214   1.513       .  S
C2209      C2210   1.540       .  S
C2209      C2215   1.514       .  S
C2209      C2213   1.529       .  S
C2209      C2348   1.470       .  S
C2210      H2217   1.084       .  S
C2210      C2211   1.380       .  D
C2211      C2212   1.566       .  S
C2212      C2216   1.561       .  S
C2212      C2214   1.559       .  S
C2212      H2218   1.108       .  S
C2213      H2219   1.086       .  S
C2213      C2214   1.368       .  D
C2215      H2220   1.084       .  S
C2215      C2216   1.355       .  D
C2216      C2318   1.497       .  S
C2221      C2222   1.530       .  S
C2221      C2227   1.515       .  S
C2221      C2225   1.541       .  S
C2221      C2337   1.479       .  S
C2222      H2229   1.086       .  S
C2222      C2223   1.369       .  D
C2223      C2224   1.557       .  S
C2224      C2228   1.547       .  S
C2224      C2226   1.565       .  S
C2224      H2230   1.109       .  S
C2225      H2231   1.084       .  S
C2225      C2226   1.380       .  D
C2227      H2232   1.086       .  S
C2227      C2228   1.361       .  D
C2228      C2313   1.488       .  S
C2233      C2234   1.532       .  S
C2233      C2239   1.525       .  S
C2233      C2237   1.545       .  S
C2233      C2341   1.483       .  S
C2234      H2241   1.086       .  S
C2234      C2235   1.365       .  D
C2235      C2292   1.502       .  S
C2235      C2236   1.548       .  S
C2236      C2240   1.531       .  S
C2236      C2238   1.558       .  S
C2236      H2242   1.111       .  S
C2237      H2243   1.085       .  S
C2237      C2238   1.380       .  D
C2239      H2244   1.086       .  S
C2239      C2240   1.366       .  D
C2240      C2310   1.479       .  S
C2245      C2246   1.541       .  S
C2245      C2251   1.513       .  S
C2245      C2249   1.532       .  S
C2245      C2352   1.474       .  S
C2246      H2253   1.084       .  S
C2246      C2247   1.382       .  D
C2247      C2248   1.571       .  S
C2248      C2252   1.563       .  S
C2248      C2250   1.559       .  S
C2248      H2254   1.107       .  S
C2249      H2255   1.086       .  S
C2249      C2250   1.368       .  D
C2250      C2293   1.517       .  S
C2251      H2256   1.089       .  S
C2251      C2252   1.349       .  D
C2252      C2305   1.490       .  S
O2257     Ni2265   1.902       .  S
O2257      C2267   1.274       .  A
O2258      C2268   1.276       .  A
O2259     Ni2265   1.923       .  S
O2259      C2269   1.283       .  A
O2260      C2270   1.286       .  A
O2261     Ni2266   1.900       .  S
O2261      C2270   1.276       .  A
O2262      C2269   1.273       .  A
O2263     Ni2266   1.920       .  S
O2263      C2268   1.282       .  A
O2264      C2267   1.289       .  A
C2267      C2306   1.480       .  S
C2268      C2314   1.458       .  S
C2269      C2309   1.452       .  S
C2270      C2317   1.472       .  S
N2271      C2276   1.355       .  A
N2271      C2275   1.356       .  A
N2271      H2303   1.044       .  S
N2272      C2279   1.358       .  A
N2272      C2280   1.355       .  A
N2273      C2278   1.363       .  A
N2273      C2277   1.359       .  A
N2273      H2304   1.043       .  S
N2274      C2281   1.357       .  A
N2274      C2282   1.360       .  A
C2275      C2283   1.381       .  A
C2275      C2291   1.418       .  A
C2276      C2292   1.408       .  A
C2276      C2284   1.382       .  A
C2277      C2285   1.382       .  A
C2277      C2294   1.430       .  A
C2278      C2293   1.420       .  A
C2278      C2286   1.381       .  A
C2279      C2291   1.425       .  A
C2279      C2287   1.386       .  A
C2280      C2294   1.425       .  A
C2280      C2288   1.387       .  A
C2281      C2289   1.380       .  A
C2281      C2292   1.419       .  A
C2282      C2290   1.378       .  A
C2282      C2293   1.416       .  A
C2283      C2284   1.371       .  A
C2283      H2295   1.068       .  S
C2284      H2296   1.082       .  S
C2285      C2286   1.371       .  A
C2285      H2297   1.065       .  S
C2286      H2298   1.081       .  S
C2287      C2288   1.382       .  A
C2287      H2299   1.082       .  S
C2288      H2300   1.082       .  S
C2289      C2290   1.360       .  A
C2289      H2301   1.067       .  S
C2290      H2302   1.069       .  S
C2305      H2307   1.088       .  S
C2305      C2306   1.336       .  D
C2306      H2308   1.086       .  S
C2309      H2311   1.085       .  S
C2309      C2310   1.334       .  D
C2310      H2312   1.087       .  S
C2313      H2315   1.085       .  S
C2313      C2314   1.339       .  D
C2314      H2316   1.085       .  S
C2317      H2319   1.082       .  S
C2317      C2318   1.357       .  D
C2318      H2320   1.085       .  S
C2321      H2323   1.086       .  S
C2321      C2322   1.346       .  D
C2322      H2324   1.084       .  S
C2325      H2327   1.083       .  S
C2325      C2326   1.348       .  D
C2326      H2328   1.085       .  S
C2329      H2331   1.086       .  S
C2329      C2330   1.347       .  D
C2330      H2332   1.083       .  S
C2333      H2335   1.086       .  S
C2333      C2334   1.347       .  D
C2334      H2336   1.083       .  S
C2337      C2338   1.213       .  T
C2339      C2340   1.206       .  T
C2341      C2342   1.215       .  T
C2343      C2344   1.211       .  T
C2345      C2346   1.211       .  T
C2347      C2348   1.208       .  T
C2349      C2350   1.212       .  T
C2351      C2352   1.211       .  T
O2353     Ni2361   1.910       .  S
O2353      C2363   1.276       .  A
O2354      C2364   1.276       .  A
O2355      C2365   1.286       .  A
O2356      C2366   1.285       .  A
O2357      C2366   1.276       .  A
O2358      C2365   1.276       .  A
O2359     Ni2362   1.937       .  S
O2359      C2364   1.285       .  A
O2360      C2363   1.286       .  A
C2363      C2687   1.444       .  S
C2364      C2683   1.443       .  S
C2365      C2682   1.441       .  S
C2366      C2686   1.440       .  S
O2367     Ni2375   1.912       .  S
O2367      C2377   1.276       .  A
O2368      C2378   1.277       .  A
O2369      C2379   1.286       .  A
O2370      C2380   1.285       .  A
O2371      C2380   1.276       .  A
O2372      C2379   1.276       .  A
O2373     Ni2376   1.937       .  S
O2373      C2378   1.285       .  A
O2374      C2377   1.285       .  A
C2377      C2678   1.443       .  S
C2378      C2674   1.444       .  S
C2379      C2679   1.443       .  S
C2380      C2676   1.443       .  S
N2381      C2386   1.356       .  A
N2381      C2385   1.359       .  A
N2381      H2413   1.044       .  S
N2382      C2390   1.360       .  A
N2383      C2388   1.358       .  A
N2383      C2387   1.361       .  A
N2383      H2414   1.044       .  S
N2384      C2392   1.356       .  A
C2385      C2393   1.383       .  A
C2385      C2401   1.416       .  A
C2386      C2402   1.424       .  A
C2386      C2394   1.383       .  A
C2387      C2395   1.382       .  A
C2387      C2404   1.417       .  A
C2388      C2403   1.425       .  A
C2388      C2396   1.381       .  A
C2389      C2401   1.413       .  A
C2389      C2397   1.378       .  A
C2390      C2404   1.419       .  A
C2390      C2398   1.379       .  A
C2391      C2399   1.386       .  A
C2391      C2402   1.426       .  A
C2392      C2400   1.387       .  A
C2392      C2403   1.424       .  A
C2393      C2394   1.374       .  A
C2393      H2405   1.081       .  S
C2394      H2406   1.069       .  S
C2395      C2396   1.372       .  A
C2395      H2407   1.081       .  S
C2396      H2408   1.068       .  S
C2397      H2409   1.067       .  S
C2398      H2410   1.068       .  S
C2399      H2411   1.082       .  S
C2400      H2412   1.082       .  S
C2401      C2456   1.507       .  S
C2402      C2547   1.529       .  S
C2403      C2562   1.529       .  S
C2404      C2444   1.515       .  S
C2415      C2416   1.529       .  S
C2415      C2421   1.518       .  S
C2415      C2419   1.539       .  S
C2415      C2685   1.471       .  S
C2416      H2423   1.086       .  S
C2416      C2417   1.367       .  D
C2417      C2497   1.507       .  S
C2417      C2418   1.554       .  S
C2418      C2422   1.550       .  S
C2418      C2420   1.563       .  S
C2418      H2424   1.110       .  S
C2419      H2425   1.085       .  S
C2419      C2420   1.377       .  D
C2420      C2533   1.524       .  S
C2421      H2426   1.085       .  S
C2421      C2422   1.360       .  D
C2422      C2669   1.489       .  S
C2427      C2428   1.543       .  S
C2427      C2433   1.520       .  S
C2427      C2431   1.531       .  S
C2427      C2680   1.475       .  S
C2428      H2435   1.085       .  S
C2428      C2429   1.382       .  D
C2429      C2532   1.531       .  S
C2429      C2430   1.563       .  S
C2430      C2434   1.542       .  S
C2430      C2432   1.551       .  S
C2430      H2436   1.110       .  S
C2431      H2437   1.086       .  S
C2431      C2432   1.366       .  D
C2432      C2500   1.505       .  S
C2433      H2438   1.086       .  S
C2433      C2434   1.358       .  D
C2434      C2665   1.482       .  S
C2439      C2440   1.542       .  S
C2439      C2445   1.521       .  S
C2439      C2443   1.531       .  S
C2439      C2675   1.475       .  S
C2440      H2447   1.084       .  S
C2440      C2441   1.381       .  D
C2441      C2627   1.534       .  S
C2441      C2442   1.568       .  S
C2442      C2446   1.550       .  S
C2442      C2444   1.560       .  S
C2442      H2448   1.109       .  S
C2443      H2449   1.086       .  S
C2443      C2444   1.366       .  D
C2445      H2450   1.085       .  S
C2445      C2446   1.360       .  D
C2446      C2662   1.492       .  S
C2451      C2452   1.518       .  S
C2451      C2457   1.541       .  S
C2451      C2455   1.529       .  S
C2451      C2681   1.473       .  S
C2452      H2459   1.085       .  S
C2452      C2453   1.360       .  D
C2453      C2454   1.550       .  S
C2453      C2657   1.489       .  S
C2454      C2458   1.565       .  S
C2454      C2456   1.553       .  S
C2454      H2460   1.109       .  S
C2455      H2461   1.086       .  S
C2455      C2456   1.367       .  D
C2457      H2462   1.084       .  S
C2457      C2458   1.378       .  D
C2458      C2630   1.526       .  S
O2463     Ni2471   1.914       .  S
O2463      C2473   1.280       .  A
O2464      C2474   1.280       .  A
O2465      C2475   1.280       .  A
O2466      C2476   1.278       .  A
O2467     Ni2472   1.911       .  S
O2467      C2476   1.280       .  A
O2468      C2475   1.280       .  A
O2469      C2474   1.280       .  A
O2470      C2473   1.282       .  A
C2473      C2661   1.471       .  S
C2474      C2670   1.464       .  S
C2475      C2658   1.465       .  S
C2476      C2666   1.460       .  S
N2477      C2482   1.354       .  A
N2477      C2481   1.358       .  A
N2477      H2509   1.044       .  S
N2478      C2486   1.359       .  A
N2479      C2484   1.356       .  A
N2479      C2483   1.357       .  A
N2479      H2510   1.044       .  S
N2480      C2488   1.356       .  A
C2481      C2489   1.383       .  A
C2481      C2497   1.413       .  A
C2482      C2498   1.421       .  A
C2482      C2490   1.382       .  A
C2483      C2491   1.382       .  A
C2483      C2500   1.410       .  A
C2484      C2499   1.419       .  A
C2484      C2492   1.379       .  A
C2485      C2497   1.413       .  A
C2485      C2493   1.376       .  A
C2486      C2500   1.418       .  A
C2486      C2494   1.381       .  A
C2487      C2495   1.388       .  A
C2487      C2498   1.425       .  A
C2488      C2496   1.386       .  A
C2488      C2499   1.423       .  A
C2489      C2490   1.373       .  A
C2489      H2501   1.081       .  S
C2490      H2502   1.069       .  S
C2491      C2492   1.370       .  A
C2491      H2503   1.081       .  S
C2492      H2504   1.068       .  S
C2493      H2505   1.064       .  S
C2494      H2506   1.072       .  S
C2495      H2507   1.082       .  S
C2496      H2508   1.082       .  S
C2498      C2583   1.525       .  S
C2499      C2574   1.526       .  S
N2511      C2516   1.360       .  A
N2511      C2515   1.362       .  A
N2511      H2543   1.044       .  S
N2512      C2519   1.359       .  A
N2512      C2520   1.361       .  A
N2513      C2518   1.356       .  A
N2513      C2517   1.357       .  A
N2513      H2544   1.044       .  S
N2514      C2521   1.354       .  A
N2514      C2522   1.355       .  A
C2515      C2523   1.380       .  A
C2515      C2531   1.416       .  A
C2516      C2532   1.428       .  A
C2516      C2524   1.379       .  A
C2517      C2525   1.382       .  A
C2517      C2534   1.410       .  A
C2518      C2533   1.419       .  A
C2518      C2526   1.380       .  A
C2519      C2531   1.420       .  A
C2519      C2527   1.381       .  A
C2520      C2534   1.418       .  A
C2520      C2528   1.380       .  A
C2521      C2529   1.387       .  A
C2521      C2532   1.421       .  A
C2522      C2530   1.386       .  A
C2522      C2533   1.421       .  A
C2523      C2524   1.369       .  A
C2523      H2535   1.081       .  S
C2524      H2536   1.064       .  S
C2525      C2526   1.370       .  A
C2525      H2537   1.081       .  S
C2526      H2538   1.068       .  S
C2527      C2528   1.359       .  A
C2527      H2539   1.069       .  S
C2528      H2540   1.072       .  S
C2529      C2530   1.382       .  A
C2529      H2541   1.082       .  S
C2530      H2542   1.082       .  S
C2531      C2559   1.512       .  S
C2534      C2550   1.507       .  S
C2545      C2546   1.541       .  S
C2545      C2551   1.519       .  S
C2545      C2549   1.530       .  S
C2545      C2684   1.474       .  S
C2546      H2553   1.084       .  S
C2546      C2547   1.381       .  D
C2547      C2548   1.564       .  S
C2548      C2552   1.544       .  S
C2548      C2550   1.553       .  S
C2548      H2554   1.109       .  S
C2549      H2555   1.086       .  S
C2549      C2550   1.366       .  D
C2551      H2556   1.086       .  S
C2551      C2552   1.360       .  D
C2552      C2654   1.482       .  S
C2557      C2558   1.533       .  S
C2557      C2563   1.521       .  S
C2557      C2561   1.540       .  S
C2557      C2673   1.476       .  S
C2558      H2565   1.086       .  S
C2558      C2559   1.367       .  D
C2559      C2560   1.554       .  S
C2560      C2564   1.545       .  S
C2560      C2562   1.564       .  S
C2560      H2566   1.110       .  S
C2561      H2567   1.084       .  S
C2561      C2562   1.380       .  D
C2563      H2568   1.085       .  S
C2563      C2564   1.360       .  D
C2564      C2649   1.487       .  S
C2569      C2570   1.532       .  S
C2569      C2575   1.518       .  S
C2569      C2573   1.542       .  S
C2569      C2677   1.475       .  S
C2570      H2577   1.086       .  S
C2570      C2571   1.369       .  D
C2571      C2628   1.511       .  S
C2571      C2572   1.557       .  S
C2572      C2576   1.551       .  S
C2572      C2574   1.564       .  S
C2572      H2578   1.110       .  S
C2573      H2579   1.085       .  S
C2573      C2574   1.378       .  D
C2575      H2580   1.085       .  S
C2575      C2576   1.358       .  D
C2576      C2646   1.489       .  S
C2581      C2582   1.540       .  S
C2581      C2587   1.514       .  S
C2581      C2585   1.531       .  S
C2581      C2688   1.474       .  S
C2582      H2589   1.084       .  S
C2582      C2583   1.379       .  D
C2583      C2584   1.563       .  S
C2584      C2588   1.551       .  S
C2584      C2586   1.554       .  S
C2584      H2590   1.109       .  S
C2585      H2591   1.086       .  S
C2585      C2586   1.368       .  D
C2586      C2629   1.509       .  S
C2587      H2592   1.085       .  S
C2587      C2588   1.358       .  D
C2588      C2641   1.486       .  S
O2593     Ni2601   1.902       .  S
O2593      C2603   1.278       .  A
O2594      C2604   1.280       .  A
O2595     Ni2601   1.907       .  S
O2595      C2605   1.280       .  A
O2596      C2606   1.279       .  A
O2597     Ni2602   1.908       .  S
O2597      C2606   1.279       .  A
O2598      C2605   1.280       .  A
O2599     Ni2602   1.911       .  S
O2599      C2604   1.280       .  A
O2600      C2603   1.280       .  A
C2603      C2642   1.461       .  S
C2604      C2650   1.466       .  S
C2605      C2645   1.465       .  S
C2606      C2653   1.461       .  S
N2607      C2612   1.360       .  A
N2607      C2611   1.356       .  A
N2607      H2639   1.044       .  S
N2608      C2615   1.359       .  A
N2608      C2616   1.358       .  A
N2609      C2614   1.359       .  A
N2609      C2613   1.352       .  A
N2609      H2640   1.044       .  S
N2610      C2617   1.354       .  A
N2610      C2618   1.356       .  A
C2611      C2619   1.383       .  A
C2611      C2627   1.425       .  A
C2612      C2628   1.418       .  A
C2612      C2620   1.383       .  A
C2613      C2621   1.382       .  A
C2613      C2630   1.420       .  A
C2614      C2629   1.413       .  A
C2614      C2622   1.382       .  A
C2615      C2627   1.430       .  A
C2615      C2623   1.387       .  A
C2616      C2630   1.428       .  A
C2616      C2624   1.387       .  A
C2617      C2625   1.377       .  A
C2617      C2628   1.413       .  A
C2618      C2626   1.376       .  A
C2618      C2629   1.412       .  A
C2619      C2620   1.376       .  A
C2619      H2631   1.069       .  S
C2620      H2632   1.081       .  S
C2621      C2622   1.374       .  A
C2621      H2633   1.070       .  S
C2622      H2634   1.081       .  S
C2623      C2624   1.384       .  A
C2623      H2635   1.082       .  S
C2624      H2636   1.082       .  S
C2625      C2626   1.368       .  A
C2625      H2637   1.064       .  S
C2626      H2638   1.067       .  S
C2641      H2643   1.085       .  S
C2641      C2642   1.346       .  D
C2642      H2644   1.083       .  S
C2645      H2647   1.083       .  S
C2645      C2646   1.346       .  D
C2646      H2648   1.085       .  S
C2649      H2651   1.086       .  S
C2649      C2650   1.346       .  D
C2650      H2652   1.084       .  S
C2653      H2655   1.084       .  S
C2653      C2654   1.344       .  D
C2654      H2656   1.086       .  S
C2657      H2659   1.085       .  S
C2657      C2658   1.345       .  D
C2658      H2660   1.083       .  S
C2661      H2663   1.083       .  S
C2661      C2662   1.349       .  D
C2662      H2664   1.086       .  S
C2665      H2667   1.086       .  S
C2665      C2666   1.343       .  D
C2666      H2668   1.085       .  S
C2669      H2671   1.086       .  S
C2669      C2670   1.345       .  D
C2670      H2672   1.083       .  S
C2673      C2674   1.211       .  T
C2675      C2676   1.211       .  T
C2677      C2678   1.211       .  T
C2679      C2680   1.211       .  T
C2681      C2682   1.210       .  T
C2683      C2684   1.211       .  T
C2685      C2686   1.209       .  T
C2687      C2688   1.211       .  T
