geometry optimzed in LAMMPS
_audit_creation_date              2020-11-30 
_audit_creation_method            'lammps2cif' 
_symmetry_space_group_name_H-M    'P1' 
_symmetry_Int_Tables_number       1 
_symmetry_cell_setting            triclinic 
loop_ 
_symmetry_equiv_pos_as_xyz 
  x,y,z 
_cell_length_a                    36.70424911 
_cell_length_b                    35.82304757360645 
_cell_length_c                    36.280286236378586 
_cell_angle_alpha                 95.5148622266375 
_cell_angle_beta                  72.38191537734092 
_cell_angle_gamma                 88.2821415626862 
loop_ 
_atom_site_label 
_atom_site_type_symbol 
_atom_site_fract_x 
_atom_site_fract_y 
_atom_site_fract_z 
_atom_site_charge 
O1          O  0.08566832  0.46108963  0.50231501    -0.79200
O2          O  0.44249125  0.51592015  0.46452521    -0.63900
O3          O  0.02112995  0.00711740  0.48447578    -1.10500
C4          C  0.95211501  0.00575778  0.10775441     1.07600
O5          O  0.40409270  0.04214555  0.01691404    -0.77100
O6          O  0.45224904  0.07535838  0.04968824    -0.64700
Ni7        Ni  0.08514778  0.45072973  0.44985646     1.34900
C8          C  0.48656242  0.08033889  0.04856714     0.86400
O9          O  0.51621124  0.51435381  0.41997453    -0.77700
O10         O  0.08544656  0.43901495  0.39692261    -0.88000
C11         C  0.38872253  0.05432126  0.51124248     0.86000
O12         O  0.05110735  0.41289980  0.46666898    -0.66200
O13         O  0.43400612  0.02842157  0.10923881    -0.85400
C14         C  0.01705659  0.40865455  0.46672866     0.86800
C15         C  0.55073631  0.50361123  0.40003207     1.08300
H16         H  0.44350968  0.49554158  0.07767342     0.40200
O17         O  0.45211627  0.51773180  0.06521584    -1.08100
O18         O  0.01075914  0.05559808  0.03926864    -0.64800
Ni19       Ni  0.00940471  0.00203210  0.03124430     1.26300
O20         O  0.48856698  0.46242988  0.47180626    -0.65000
O21         O  0.98596492  0.99828738  0.08464903    -0.77300
C22         C  0.10188815  0.47556826  0.97744438     0.86200
O23         O  0.05746709  0.00029735  0.03964068    -0.64500
Ni24       Ni  0.42182192  0.03386765  0.06102944     1.27400
Ni25       Ni  0.49002105  0.51647341  0.47421531     1.26100
H26         H  0.02942322  0.03219454  0.48069452     0.40700
O27         O  0.01717431  0.96668852  0.17850757    -0.72800
O28         O  0.08930543  0.47024612  0.24917582    -0.72800
O29         O  0.06279938  0.42129566  0.20285367    -0.72900
O30         O  0.03634827  0.02692797  0.21928421    -0.72900
O31         O  0.45576352  0.03982258  0.29462042    -0.72800
O32         O  0.47613955  0.43196682  0.28492896    -0.72800
O33         O  0.51047732  0.48289148  0.32063405    -0.72800
O34         O  0.45608226  0.98648072  0.23604995    -0.72900
Ni35       Ni  0.04052406  0.97224426  0.21853414     1.25400
Ni36       Ni  0.47651632  0.48666563  0.29084713     1.25400
C37         C  0.48686794  0.98740328  0.20781735     0.89400
C38         C  0.54687221  0.47902153  0.30549448     0.90500
C39         C  0.50194758  0.41141252  0.25790081     0.89400
C40         C  0.48600382  0.05845399  0.28535996     0.89500
O41         O  0.18114948  0.04288938  0.51969333    -0.72800
O42         O  0.28777441  0.05566285  0.48378367    -0.72800
O43         O  0.23177807  0.04962720  0.44883435    -0.72900
O44         O  0.22729124  0.03328032  0.05217453    -0.72900
O45         O  0.26820935  0.47498671  0.01637157    -0.72800
O46         O  0.27904304  0.46096727  0.40503226    -0.72800
O47         O  0.32770128  0.47427356  0.95052764    -0.72800
O48         O  0.21994957  0.47026371  0.97186393    -0.72900
Ni49       Ni  0.23394921  0.05138093  0.50179934     1.25400
Ni50       Ni  0.27417591  0.46973763  0.96077761     1.25400
C51         C  0.19948592  0.50120189  0.97831885     0.89400
C52         C  0.33967243  0.50945636  0.44241664     0.89300
C53         C  0.27070812  0.49023405  0.39046860     0.89400
C54         C  0.26362433  0.50731745  0.03648877     0.89500
O55         O  0.05682547  0.22645951  0.47709671    -0.72800
O56         O  0.45326182  0.25447719  0.47546194    -0.72800
O57         O  0.00928885  0.27584819  0.45857994    -0.72900
O58         O  0.99481254  0.18624124  0.50850407    -0.72900
O59         O  0.48740943  0.20399589  0.04618647    -0.72800
O60         O  0.49235414  0.30889361  0.03110805    -0.72800
O61         O  0.43563230  0.25971783  0.04137764    -0.72800
O62         O  0.04626980  0.26091195  0.03122962    -0.72900
Ni63       Ni  0.00222271  0.22997689  0.48168743     1.25400
Ni64       Ni  0.48938057  0.25709933  0.04079375     1.25400
C65         C  0.07003320  0.24324526  0.00017433     0.89400
C66         C  0.42508621  0.25463010  0.01045833     0.89300
C67         C  0.50282193  0.31822219  0.99639682     0.89400
C68         C  0.49193560  0.17961246  0.01662304     0.89500
O69         O  0.48401172  0.22527400  0.22581692    -0.72800
O70         O  0.07921229  0.22329729  0.21555404    -0.72800
O71         O  0.03839157  0.16957282  0.19250702    -0.72900
O72         O  0.03385998  0.27878249  0.20258109    -0.72900
O73         O  0.46606871  0.29080195  0.30967970    -0.72800
O74         O  0.48099207  0.18315423  0.31003176    -0.72800
O75         O  0.04171568  0.22624278  0.27726559    -0.72800
O76         O  0.43760166  0.22792032  0.28277251    -0.72900
Ni77       Ni  0.03719973  0.22393934  0.19527317     1.25400
Ni78       Ni  0.47191919  0.23713661  0.31220930     1.25400
C79         C  0.44905324  0.22329671  0.24558443     0.89400
C80         C  0.07470155  0.22485821  0.25203903     0.89300
C81         C  0.50633943  0.16434116  0.28115930     0.89400
C82         C  0.48677742  0.30732188  0.28135568     0.89500
O83         O  0.35373471  0.22224822  0.20090412    -0.79200
O84         O  0.17829137  0.23440743  0.26946324    -0.63900
O85         O  0.27907116  0.25638477  0.21968868    -1.10500
C86         C  0.27951470  0.30002613  0.34312236     1.07600
O87         O  0.15990678  0.28493899  0.31216533    -0.77100
O88         O  0.21811848  0.32990913  0.28334978    -0.64700
Ni89       Ni  0.31136076  0.21970128  0.18023631     1.34900
C90         C  0.25185682  0.33766209  0.26504233     0.86400
O91         O  0.21647474  0.23704765  0.19672018    -0.77700
O92         O  0.27278875  0.21432634  0.15443833    -0.88000
C93         C  0.15247734  0.25668686  0.29220542     0.86000
O94         O  0.29716027  0.17617308  0.20603887    -0.66200
O95         O  0.24765892  0.31581265  0.34353374    -0.85400
C96         C  0.26611428  0.16946008  0.23075679     0.86800
C97         C  0.23724640  0.22412564  0.16304719     1.08300
H98         H  0.23652115  0.23497094  0.30580716     0.40200
O99         O  0.23811671  0.25672590  0.29170778    -1.08100
O100        O  0.28126283  0.31871833  0.26566857    -0.64800
Ni101      Ni  0.29007730  0.26618481  0.26733813     1.26300
O102        O  0.23840078  0.19359202  0.24537923    -0.65000
O103        O  0.29898132  0.27596461  0.31576059    -0.77300
C104        C  0.36442989  0.24938067  0.21950928     0.86200
O105        O  0.34145122  0.27469152  0.24171180    -0.64500
Ni106      Ni  0.20629778  0.29832713  0.32453934     1.27400
Ni107      Ni  0.22775300  0.24571933  0.24411123     1.26100
H108        H  0.27886139  0.27922583  0.20762406     0.40700
O109        O  0.24315392  0.20117370  0.03017891    -0.72800
O110        O  0.26439761  0.26389587  0.43607574    -0.72800
O111        O  0.30714338  0.22162765  0.97741463    -0.72900
O112        O  0.19695911  0.22680549  0.98935674    -0.72900
O113        O  0.19197806  0.28494574  0.52457149    -0.72800
O114        O  0.30142932  0.28159326  0.51451591    -0.72800
O115        O  0.25523123  0.31534766  0.47848396    -0.72800
O116        O  0.23616461  0.25827778  0.06300914    -0.72900
Ni117      Ni  0.25246154  0.22198158  0.98214075     1.25400
Ni118      Ni  0.24626192  0.28515188  0.52073132     1.25400
C119        C  0.23756855  0.22238027  0.06190648     0.89400
C120        C  0.26305404  0.29964549  0.44364517     0.89300
C121        C  0.32437242  0.25558029  0.49123595     0.89400
C122        C  0.17590587  0.25637632  0.00775062     0.89500
O123        O  0.29000371  0.49223650  0.26220842    -0.72800
O124        O  0.28569734  0.98454242  0.17708626    -0.72800
O125        O  0.30166575  0.03764430  0.22763058    -0.72900
O126        O  0.27844667  0.43630515  0.21270975    -0.72900
O127        O  0.21681280  0.45544713  0.22787224    -0.72800
O128        O  0.24028889  0.05867959  0.24785036    -0.72800
O129        O  0.22472536  0.00642519  0.19604164    -0.72800
O130        O  0.22871621  0.51220878  0.27711348    -0.72900
Ni131      Ni  0.29555188  0.48540753  0.20666841     1.25400
Ni132      Ni  0.22977051  0.50640660  0.22278746     1.25400
C133        C  0.25803780  0.50399279  0.28793484     0.89400
C134        C  0.25561263  0.99447674  0.16855148     0.89300
C135        C  0.27593949  0.06467188  0.23619892     0.89400
C136        C  0.24289423  0.42977632  0.22448406     0.89500
C137        C  0.26007596  0.13168017  0.24248180    -0.14800
C138        C  0.28700354  0.10326344  0.23069009    -0.30000
H139        H  0.23114676  0.12661093  0.25971542     0.14200
H140        H  0.31629140  0.10797553  0.21432041     0.14800
C141        C  0.25920221  0.37038411  0.24352507    -0.14800
C142        C  0.23211930  0.39322002  0.23824738    -0.30000
H143        H  0.28910916  0.37687955  0.23311359     0.14200
H144        H  0.20207206  0.38738250  0.24881216     0.14800
C145        C  0.22003939  0.22457713  0.13172279    -0.14800
C146        C  0.23691149  0.20545201  0.09703207    -0.30000
H147        H  0.19827350  0.24693379  0.13472749     0.14200
H148        H  0.25720681  0.18177281  0.09402509     0.14800
C149        C  0.26891738  0.32219121  0.41109700    -0.14800
C150        C  0.29320623  0.30740573  0.37687756    -0.30000
H151        H  0.24533102  0.34179985  0.41226192     0.14200
H152        H  0.31735655  0.28905884  0.37698739     0.14800
C153        C  0.10866092  0.22480152  0.26415822    -0.14800
C154        C  0.11324513  0.25032447  0.29189747    -0.30000
H155        H  0.13282890  0.20733437  0.24463361     0.14200
H156        H  0.08958533  0.26948290  0.30965340     0.14800
C157        C  0.42062321  0.21846971  0.22573678    -0.14800
C158        C  0.40383989  0.24961120  0.21944369    -0.30000
H159        H  0.40697999  0.19192003  0.22611468     0.14200
H160        H  0.41537309  0.27669645  0.22410992     0.14800
C161        C  0.36737971  0.25313214  0.48637126    -0.14800
C162        C  0.38485793  0.27262471  0.50998974    -0.30000
H163        H  0.38307165  0.22731146  0.96234974     0.14200
H164        H  0.36664574  0.29114209  0.53452802     0.14800
C165        C  0.11301861  0.23878776  0.99441421    -0.14800
C166        C  0.13271862  0.25998711  0.01435944    -0.30000
H167        H  0.13063220  0.21883386  0.47130413     0.14200
H168        H  0.11662722  0.28238875  0.03601206     0.14800
C169        C  0.27391496  0.48667153  0.34769362    -0.14800
C170        C  0.25448503  0.50900333  0.33079726    -0.30000
H171        H  0.29230153  0.46337461  0.32944260     0.14200
H172        H  0.27742521  0.97859864  0.35702719     0.14800
C173        C  0.23583454  0.01021390  0.10967123    -0.14800
C174        C  0.25791047  0.99045946  0.12599569    -0.30000
H175        H  0.21456646  0.03121944  0.12827533     0.14200
H176        H  0.28927548  0.46044412  0.08062874     0.14800
C177        C  0.50350667  0.36929320  0.25533978    -0.14800
C178        C  0.48164367  0.34924846  0.28271539    -0.30000
H179        H  0.05749184  0.34797639  0.19056443     0.14200
H180        H  0.46028628  0.36412375  0.30786007     0.14800
C181        C  0.48198021  0.10044778  0.29211195    -0.14800
C182        C  0.51117572  0.12251539  0.27818913    -0.30000
H183        H  0.45371881  0.11359165  0.30759126     0.14200
H184        H  0.04624572  0.09579852  0.19154248     0.14800
C185        C  0.99999567  0.37464466  0.48033313    -0.14800
C186        C  0.01423890  0.34143964  0.46052059    -0.30000
H187        H  0.96539440  0.37509947  0.00456775     0.14200
H188        H  0.54670509  0.36699978  0.43847846     0.14800
C189        C  0.49920683  0.11897149  0.04367137    -0.14800
C190        C  0.48491926  0.13989004  0.02164612    -0.30000
H191        H  0.44195952  0.18215510  0.59609594     0.14200
H192        H  0.95189176  0.15147995  0.08017604     0.14800
C193        C  0.35166319  0.03118550  0.46976855    -0.14800
C194        C  0.36048537  0.05997643  0.49111645    -0.30000
H195        H  0.34620383  0.07278282  0.00178328     0.14200
H196        H  0.36310275  0.56782047  0.47592812     0.14800
C197        C  0.14160772  0.47136301  0.97655838    -0.14800
C198        C  0.15848590  0.50133135  0.98661769    -0.30000
H199        H  0.15797306  0.44495903  0.96388749     0.14200
H200        H  0.11016709  0.03089369  0.54502604     0.14800
C201        C  0.56940971  0.47932461  0.33226215    -0.14800
C202        C  0.56155569  0.50904588  0.35907513    -0.30000
H203        H  0.07486130  0.96854745  0.33085579     0.14200
H204        H  0.54924692  0.53477742  0.35266095     0.14800
C205        C  0.94529273  0.99542155  0.14730026    -0.14800
C206        C  0.96679645  0.96651093  0.15216209    -0.30000
H207        H  0.43051513  0.01738700  0.18205615     0.14200
H208        H  0.98363862  0.94792444  0.12682000     0.14800
O209        O  0.08820982  0.44933300  0.96071323    -0.79200
O210        O  0.41994348  0.50061898  0.00835048    -0.63900
O211        O  0.03098809  0.00591706  0.97707124    -1.10500
C212        C  0.94723693  0.00956424  0.61617369     1.07600
O213        O  0.38953387  0.07920041  0.53844763    -0.77100
O214        O  0.41570859  0.11379455  0.59374586    -0.64700
Ni215      Ni  0.06102978  0.45689674  0.92410028     1.34900
C216        C  0.45089570  0.12018198  0.58425985     0.86400
O217        O  0.48884122  0.49177202  0.95607695    -0.77700
O218        O  0.03615227  0.46238535  0.88540306    -0.88000
C219        C  0.40809997  0.02309792  0.98414714     0.86000
O220        O  0.03171362  0.41554534  0.94124869    -0.66200
O221        O  0.38880985  0.05891129  0.64109145    -0.85400
C222        C  0.99840176  0.41297225  0.96427613     0.86800
C223        C  0.52245695  0.48742522  0.93165036     1.08300
H224        H  0.46161742  0.49376025  0.53613069     0.40200
O225        O  0.46753879  0.51877273  0.52931539    -1.08100
O226        O  0.00378833  0.05584856  0.54822134    -0.64800
Ni227      Ni  0.00140843  0.00241177  0.53870232     1.26300
O228        O  0.47008760  0.45212588  0.01997540    -0.65000
O229        O  0.97951158  0.99792288  0.59189617    -0.77300
C230        C  0.09428456  0.49320308  0.51369867     0.86200
O231        O  0.05072271  0.99911392  0.54469390    -0.64500
Ni232      Ni  0.39021680  0.06858104  0.58942476     1.27400
Ni233      Ni  0.46961393  0.50451370  0.01085059     1.26100
H234        H  0.03962111  0.03088356  0.97327014     0.40700
O235        O  0.01425935  0.97215161  0.67936429    -0.72800
O236        O  0.02661239  0.47084831  0.74949488    -0.72800
O237        O  0.00857009  0.42260075  0.69668687    -0.72900
O238        O  0.03479759  0.03149467  0.72031658    -0.72900
O239        O  0.45713035  0.05980331  0.79906590    -0.72800
O240        O  0.46537086  0.44995801  0.77351770    -0.72800
O241        O  0.46127069  0.50030020  0.83478273    -0.72800
O242        O  0.42339492  0.00650818  0.76514821    -0.72900
Ni243      Ni  0.04313922  0.97679159  0.71488280     1.25400
Ni244      Ni  0.45675741  0.50417300  0.78458177     1.25400
C245        C  0.43738982  0.00628752  0.72830475     0.89400
C246        C  0.49365244  0.49974334  0.84108311     0.90500
C247        C  0.49926011  0.43384265  0.76003911     0.89400
C248        C  0.48122294  0.07666513  0.77355378     0.89500
O249        O  0.18616538  0.00623634  0.00608170    -0.72800
O250        O  0.28035421  0.05362545  0.98826788    -0.72800
O251        O  0.23839433  0.02611690  0.94118955    -0.72900
O252        O  0.23609326  0.04868365  0.55427481    -0.72900
O253        O  0.27919770  0.46718512  0.51288766    -0.72800
O254        O  0.28014335  0.46851773  0.90566318    -0.72800
O255        O  0.33130893  0.47513395  0.44262071    -0.72800
O256        O  0.22651676  0.45275020  0.47533663    -0.72900
Ni257      Ni  0.23195619  0.03183325  0.99711605     1.25400
Ni258      Ni  0.27960426  0.46183545  0.45857767     1.25400
C259        C  0.20086254  0.47984973  0.48515787     0.89400
C260        C  0.34121296  0.50669078  0.95099668     0.89300
C261        C  0.27738357  0.49815446  0.88911583     0.89400
C262        C  0.26935849  0.49869482  0.53459715     0.89500
O263        O  0.05715010  0.22821190  0.97325747    -0.72800
O264        O  0.45084680  0.24639478  0.97720894    -0.72800
O265        O  0.00865960  0.27757301  0.95468881    -0.72900
O266        O  0.99651811  0.18618764  0.00253448    -0.72900
O267        O  0.48553878  0.23325393  0.55460947    -0.72800
O268        O  0.49815503  0.32856613  0.51319544    -0.72800
O269        O  0.43808257  0.28348894  0.53558062    -0.72800
O270        O  0.04774788  0.25986068  0.53440040    -0.72900
Ni271      Ni  0.00294655  0.23065978  0.97663291     1.25400
Ni272      Ni  0.49137705  0.28199427  0.53591399     1.25400
C273        C  0.07080698  0.24223537  0.50287937     0.89400
C274        C  0.42754004  0.26972923  0.50649860     0.89300
C275        C  0.50954207  0.32960912  0.47627375     0.89400
C276        C  0.49166770  0.20312469  0.53092428     0.89500
O277        O  0.47908741  0.25723400  0.70913490    -0.72800
O278        O  0.05712588  0.23584155  0.70483225    -0.72800
O279        O  0.01852182  0.17292931  0.69827230    -0.72900
O280        O  0.99625841  0.28011532  0.70376603    -0.72900
O281        O  0.46549527  0.30949039  0.79978543    -0.72800
O282        O  0.46990563  0.20067939  0.78633167    -0.72800
O283        O  0.03471031  0.23966466  0.76964517    -0.72800
O284        O  0.43192945  0.25777237  0.76527595    -0.72900
Ni285      Ni  0.00811126  0.22643392  0.69897737     1.25400
Ni286      Ni  0.46602880  0.25520468  0.79521210     1.25400
C287        C  0.44360170  0.25947691  0.72858430     0.89400
C288        C  0.06205122  0.24149272  0.73833896     0.89300
C289        C  0.49469748  0.18266109  0.75642724     0.89400
C290        C  0.48744715  0.32752197  0.77366579     0.89500
O291        O  0.35091947  0.21470489  0.67301439    -0.79200
O292        O  0.17118477  0.23930850  0.74742889    -0.63900
O293        O  0.27672222  0.24762252  0.70282296    -1.10500
C294        C  0.27544582  0.27598712  0.83076845     1.07600
O295        O  0.15837613  0.28593101  0.79541265    -0.77100
O296        O  0.22356545  0.32359887  0.77172372    -0.64700
Ni297      Ni  0.30246714  0.20618448  0.66512780     1.34900
C298        C  0.25861878  0.32808890  0.75474321     0.86400
O299        O  0.21489717  0.23955611  0.67649180    -0.77700
O300        O  0.25817280  0.19258879  0.64966654    -0.88000
C301        C  0.14802486  0.26259988  0.77230648     0.86000
O302        O  0.29048282  0.17411148  0.70497126    -0.66200
O303        O  0.24744573  0.29804171  0.83086148    -0.85400
C304        C  0.25632827  0.16790523  0.72355577     0.86800
C305        C  0.22907329  0.21295933  0.65021925     1.08300
H306        H  0.22641177  0.22556142  0.78681265     0.40200
O307        O  0.23204901  0.24812427  0.77406416    -1.08100
O308        O  0.28536428  0.30405047  0.75331252    -0.64800
Ni309      Ni  0.28577345  0.25004106  0.75221580     1.26300
O310        O  0.22769733  0.18982853  0.72556844    -0.65000
O311        O  0.29261072  0.25225962  0.80200345    -0.77300
C312        C  0.36181381  0.23374640  0.69854467     0.86200
O313        O  0.33920961  0.25051542  0.72989177    -0.64500
Ni314      Ni  0.20522960  0.29004526  0.80978411     1.27400
Ni315      Ni  0.22338912  0.24354111  0.72516276     1.26100
H316        H  0.28152896  0.27088473  0.69122209     0.40700
O317        O  0.24789236  0.20025721  0.51666253    -0.72800
O318        O  0.26216118  0.24604245  0.93620912    -0.72800
O319        O  0.31072267  0.23109831  0.47126624    -0.72900
O320        O  0.20055970  0.23379575  0.48227298    -0.72900
O321        O  0.19158364  0.28368746  0.02171898    -0.72800
O322        O  0.30119152  0.27801890  0.01090237    -0.72800
O323        O  0.25632561  0.30343330  0.96807848    -0.72800
O324        O  0.23768102  0.25157137  0.55942380    -0.72900
Ni325      Ni  0.25621778  0.23055731  0.47494755     1.25400
Ni326      Ni  0.24607149  0.28291625  0.01703019     1.25400
C327        C  0.23974478  0.21577720  0.55149977     0.89400
C328        C  0.26254459  0.28171693  0.93637310     0.89300
C329        C  0.32237725  0.24852957  0.99269956     0.89400
C330        C  0.17779173  0.25973885  0.50604408     0.89500
O331        O  0.29637400  0.49167814  0.76101233    -0.72800
O332        O  0.28418458  0.98855347  0.67905809    -0.72800
O333        O  0.29311276  0.04178790  0.73389378    -0.72900
O334        O  0.28883088  0.43285711  0.71188570    -0.72900
O335        O  0.22690584  0.44944834  0.72392386    -0.72800
O336        O  0.23116535  0.05988136  0.74888008    -0.72800
O337        O  0.22270487  0.00770410  0.69363567    -0.72800
O338        O  0.23440487  0.50803990  0.77396417    -0.72900
Ni339      Ni  0.30357501  0.48289268  0.70527411     1.25400
Ni340      Ni  0.23728060  0.50095612  0.71923047     1.25400
C341        C  0.26360556  0.50246283  0.78583231     0.89400
C342        C  0.25521854  0.99765568  0.66802001     0.89300
C343        C  0.26636391  0.06747944  0.74068142     0.89400
C344        C  0.25369198  0.42477991  0.72135068     0.89500
C345        C  0.24850690  0.13276850  0.74043931    -0.14800
C346        C  0.27626446  0.10615989  0.73609491    -0.30000
H347        H  0.21856517  0.12704804  0.75267535     0.14200
H348        H  0.30626617  0.11171115  0.72403764     0.14800
C349        C  0.26941660  0.36291181  0.73735481    -0.14800
C350        C  0.24342485  0.38726374  0.73217290    -0.30000
H351        H  0.29941230  0.36917590  0.72984429     0.14200
H352        H  0.21345440  0.38094427  0.73957108     0.14800
C353        C  0.21263291  0.20781080  0.61839851    -0.14800
C354        C  0.23471988  0.19274282  0.58340982    -0.30000
H355        H  0.18916218  0.22788014  0.62005277     0.14200
H356        H  0.25760111  0.17164073  0.58051903     0.14800
C357        C  0.26788033  0.29715607  0.89925265    -0.14800
C358        C  0.28675665  0.27565814  0.86615424    -0.30000
H359        H  0.25031677  0.32201770  0.89897614     0.14200
H360        H  0.30528966  0.25177413  0.86723794     0.14800
C361        C  0.10033464  0.24889825  0.74016840    -0.14800
C362        C  0.10787313  0.26206065  0.77297025    -0.30000
H363        H  0.12361909  0.24228198  0.71315440     0.14200
H364        H  0.08503763  0.27126672  0.79966874     0.14800
C365        C  0.41478928  0.26509253  0.70970616    -0.14800
C366        C  0.40278378  0.23536201  0.69279032    -0.30000
H367        H  0.39549865  0.29000882  0.72116202     0.14200
H368        H  0.42110915  0.20973999  0.68199408     0.14800
C369        C  0.36527041  0.24494012  0.98785247    -0.14800
C370        C  0.38247151  0.25958774  0.01420811    -0.30000
H371        H  0.38520387  0.23338970  0.46275044     0.14200
H372        H  0.36412291  0.27483375  0.04105578     0.14800
C373        C  0.11429452  0.23931915  0.49502833    -0.14800
C374        C  0.13429097  0.26146930  0.51392796    -0.30000
H375        H  0.12940430  0.21769070  0.97136371     0.14200
H376        H  0.11787850  0.28281383  0.53669247     0.14800
C377        C  0.28296084  0.49380368  0.84597757    -0.14800
C378        C  0.25885185  0.50923978  0.82884994    -0.30000
H379        H  0.30625427  0.47439540  0.82801127     0.14200
H380        H  0.21181527  0.02511293  0.87717777     0.14800
C381        C  0.23924562  0.01851580  0.60969971    -0.14800
C382        C  0.25964306  0.99557662  0.62500930    -0.30000
H383        H  0.21992710  0.04042215  0.62935599     0.14200
H384        H  0.30332325  0.45656437  0.57720904     0.14800
C385        C  0.50522862  0.39192594  0.75444940    -0.14800
C386        C  0.48200037  0.36950145  0.77791003    -0.30000
H387        H  0.00450043  0.34862197  0.68281483     0.14200
H388        H  0.45775974  0.38248342  0.80156756     0.14800
C389        C  0.47810864  0.11884565  0.77785760    -0.14800
C390        C  0.49836546  0.14043553  0.75113067    -0.30000
H391        H  0.45756491  0.13266769  0.80425198     0.14200
H392        H  0.03931073  0.10143509  0.69801461     0.14800
C393        C  0.98809192  0.37598345  0.97731350    -0.14800
C394        C  0.00817169  0.34416123  0.95835546    -0.30000
H395        H  0.97899325  0.37664750  0.50905597     0.14200
H396        H  0.53015768  0.36369955  0.96365528     0.14800
C397        C  0.46098847  0.15914319  0.57802582    -0.14800
C398        C  0.48769109  0.16579727  0.54514238    -0.30000
H399        H  0.51981823  0.12998296  0.05729567     0.14200
H400        H  0.95015559  0.15329711  0.58727969     0.14800
C401        C  0.34697995  0.04874880  0.98081127    -0.14800
C402        C  0.37887932  0.02659414  0.96479052    -0.30000
H403        H  0.37086011  0.00604744  0.46001126     0.14200
H404        H  0.35894330  0.56172005  0.99340739     0.14800
C405        C  0.13328323  0.49898594  0.51390420    -0.14800
C406        C  0.16075326  0.47146970  0.49843675    -0.30000
H407        H  0.14049373  0.52745866  0.52089752     0.14200
H408        H  0.14768553  0.93063875  0.98846337     0.14800
C409        C  0.49369521  0.49580856  0.88063580    -0.14800
C410        C  0.52546833  0.48874869  0.89047406    -0.30000
H411        H  0.08730385  0.96703945  0.82252133     0.14200
H412        H  0.55345208  0.48533472  0.86859413     0.14800
C413        C  0.94096546  0.00067340  0.65599032    -0.14800
C414        C  0.95882930  0.96930174  0.66095966    -0.30000
H415        H  0.40839085  0.06984441  0.71649219     0.14200
H416        H  0.97092642  0.94813476  0.63624650     0.14800
O417        O  0.06825454  0.95272547  0.49766676    -0.79200
O418        O  0.41024075  0.02435446  0.50306190    -0.63900
O419        O  0.04816924  0.49110754  0.45798899    -1.10500
C420        C  0.99911451  0.52555116  0.09337017     1.07600
O421        O  0.40265024  0.55872369  0.03689940    -0.77100
O422        O  0.43951242  0.59894240  0.07960943    -0.64700
Ni423      Ni  0.06262005  0.97365600  0.45292776     1.34900
C424        C  0.47491175  0.60431523  0.06686508     0.86400
O425        O  0.48337626  0.01798709  0.45969808    -0.77700
O426        O  0.05817557  0.99309443  0.40702050    -0.88000
C427        C  0.41640630  0.54189967  0.47897926     0.86000
O428        O  0.03556668  0.93102618  0.44387816    -0.66200
O429        O  0.41737438  0.55105047  0.13685762    -0.85400
C430        C  0.00039328  0.92503598  0.45665744     0.86800
C431        C  0.51801781  0.00906778  0.43904811     1.08300
H432        H  0.45217410  0.97366063  0.03587172     0.40200
O433        O  0.46178750  0.99813202  0.03112098    -1.08100
O434        O  0.02913085  0.55941828  0.00246436    -0.64800
Ni435      Ni  0.02854009  0.50689889  0.00950304     1.26300
O436        O  0.45698987  0.97210195  0.51621521    -0.65000
O437        O  0.02699001  0.51772191  0.06224764    -0.77300
C438        C  0.08296356  0.97492587  0.02184258     0.86200
O439        O  0.08214184  0.50554378  0.99411578    -0.64500
Ni440      Ni  0.41133279  0.55467735  0.08644722     1.27400
Ni441      Ni  0.45719059  0.02613925  0.51383981     1.26100
H442        H  0.06106374  0.51066941  0.44341135     0.40700
O443        O  0.03865356  0.48170031  0.17419696    -0.72800
O444        O  0.06040132  0.97777674  0.26137622    -0.72800
O445        O  0.03978553  0.91836375  0.22132821    -0.72900
O446        O  0.06337176  0.52993585  0.22068387    -0.72900
O447        O  0.48103681  0.54101347  0.29303871    -0.72800
O448        O  0.46485781  0.93084672  0.28097291    -0.72800
O449        O  0.46358309  0.98513811  0.33826479    -0.72800
O450        O  0.44583120  0.49067476  0.25729351    -0.72900
Ni451      Ni  0.06550730  0.47557642  0.21015073     1.25400
Ni452      Ni  0.45781395  0.98540230  0.28815542     1.25400
C453        C  0.46171056  0.49085372  0.22081382     0.89400
C454        C  0.49607871  0.98733599  0.34411171     0.90500
C455        C  0.49835096  0.91375151  0.26834348     0.89400
C456        C  0.50760978  0.55583916  0.26771395     0.89500
O457        O  0.20943833  0.51399661  0.48244665    -0.72800
O458        O  0.31388816  0.53637405  0.45032651    -0.72800
O459        O  0.26135697  0.52188700  0.41199409    -0.72900
O460        O  0.26259797  0.53738050  0.01977284    -0.72900
O461        O  0.25784420  0.97700685  0.04392554    -0.72800
O462        O  0.24467605  0.98769533  0.43773156    -0.72800
O463        O  0.31011234  0.99670697  0.97945619    -0.72800
O464        O  0.21637516  0.94947250  0.99706642    -0.72900
Ni465      Ni  0.26092992  0.52724118  0.46629783     1.25400
Ni466      Ni  0.26446330  0.97134727  0.98806524     1.25400
C467        C  0.18575328  0.97039338  0.00459411     0.89400
C468        C  0.31134566  0.02673963  0.47420859     0.89300
C469        C  0.23742241  0.01899129  0.42577626     0.89400
C470        C  0.24077763  0.00649083  0.06644614     0.89500
O471        O  0.06180508  0.73877594  0.44137712    -0.72800
O472        O  0.44751317  0.76445700  0.46710198    -0.72800
O473        O  0.01179146  0.79079731  0.42919446    -0.72900
O474        O  0.00243807  0.69376108  0.46460097    -0.72900
O475        O  0.50104231  0.71633863  0.03004630    -0.72800
O476        O  0.51258140  0.81302098  0.99137867    -0.72800
O477        O  0.45286515  0.76888814  0.01401427    -0.72800
O478        O  0.06178941  0.76891464  0.00629726    -0.72900
Ni479      Ni  0.00718637  0.74132724  0.44513225     1.25400
Ni480      Ni  0.50652953  0.76581974  0.01271136     1.25400
C481        C  0.08618861  0.75299383  0.97468899     0.89400
C482        C  0.44142176  0.75784594  0.98472046     0.89300
C483        C  0.52204645  0.81523737  0.95467698     0.89400
C484        C  0.50589066  0.68665694  0.00585805     0.89500
O485        O  0.46326431  0.73268381  0.24539776    -0.72800
O486        O  0.05776069  0.72978980  0.25757849    -0.72800
O487        O  0.01856083  0.67134739  0.24117616    -0.72900
O488        O  0.01089763  0.77936402  0.23992944    -0.72900
O489        O  0.46903376  0.79533947  0.32340034    -0.72800
O490        O  0.47105480  0.68758287  0.32515633    -0.72800
O491        O  0.02193106  0.73762021  0.31999168    -0.72800
O492        O  0.42598418  0.74057792  0.30727815    -0.72900
Ni493      Ni  0.01553759  0.72519916  0.23859189     1.25400
Ni494      Ni  0.46909510  0.74188648  0.32651993     1.25400
C495        C  0.43033245  0.73766362  0.27071060     0.89400
C496        C  0.05439211  0.73558260  0.29388168     0.89300
C497        C  0.48912831  0.66558759  0.29449967     0.89400
C498        C  0.48612003  0.80964594  0.29208978     0.89500
O499        O  0.35913899  0.72108683  0.18374733    -0.79200
O500        O  0.18207773  0.73138029  0.24140935    -0.63900
O501        O  0.28435067  0.75375743  0.19968274    -1.10500
C502        C  0.28131091  0.79164083  0.32523920     1.07600
O503        O  0.16432901  0.76214245  0.30127550    -0.77100
O504        O  0.21349574  0.81751513  0.27132303    -0.64700
Ni505      Ni  0.31873277  0.71907995  0.15995993     1.34900
C506        C  0.24571556  0.82945954  0.25317731     0.86400
O507        O  0.22483724  0.73916334  0.17102068    -0.77700
O508        O  0.28181467  0.71376492  0.13186990    -0.88000
C509        C  0.15809188  0.74038801  0.27435489     0.86000
O510        O  0.30383458  0.67512925  0.18435203    -0.66200
O511        O  0.24950394  0.80662999  0.32534648    -0.85400
C512        C  0.27105630  0.66683958  0.20439594     0.86800
C513        C  0.24682742  0.72487316  0.13819544     1.08300
H514        H  0.24196589  0.72281273  0.27988464     0.40200
O515        O  0.24196423  0.74688996  0.26989338    -1.08100
O516        O  0.27775378  0.81279789  0.25053259    -0.64800
Ni517      Ni  0.29261314  0.76052934  0.24868605     1.26300
O518        O  0.24218378  0.68987384  0.21630324    -0.65000
O519        O  0.30024915  0.76738518  0.29810658    -0.77300
C520        C  0.36651074  0.74544608  0.20787240     0.86200
O521        O  0.34308715  0.77235602  0.22594591    -0.64500
Ni522      Ni  0.20918138  0.78318099  0.30931239     1.27400
Ni523      Ni  0.23276827  0.74275981  0.22037147     1.26100
H524        H  0.28496289  0.77738762  0.18878195     0.40700
O525        O  0.25906768  0.70665706  0.00273367    -0.72800
O526        O  0.26631987  0.76205346  0.42118661    -0.72800
O527        O  0.32245079  0.73009925  0.95140858    -0.72900
O528        O  0.21247077  0.73673762  0.96443740    -0.72900
O529        O  0.18961718  0.78728676  0.50570027    -0.72800
O530        O  0.29721230  0.78620531  0.50275828    -0.72800
O531        O  0.25440960  0.81576783  0.46059340    -0.72800
O532        O  0.25220297  0.76163317  0.03948704    -0.72900
Ni533      Ni  0.26785624  0.73155757  0.95673703     1.25400
Ni534      Ni  0.24286457  0.78863646  0.50542953     1.25400
C535        C  0.25331213  0.72572092  0.03582475     0.89400
C536        C  0.26446566  0.79794456  0.42645959     0.89300
C537        C  0.32090936  0.75942041  0.48191831     0.89400
C538        C  0.19121546  0.76519579  0.98513678     0.89500
O539        O  0.28540733  0.98943018  0.28412686    -0.72800
O540        O  0.29668943  0.47970306  0.15233520    -0.72800
O541        O  0.30840555  0.53634155  0.20214622    -0.72900
O542        O  0.26896235  0.93774391  0.23334473    -0.72900
O543        O  0.20766302  0.95907937  0.25376022    -0.72800
O544        O  0.24670151  0.55546308  0.21760044    -0.72800
O545        O  0.23555893  0.50008932  0.16704994    -0.72800
O546        O  0.22446953  0.01152825  0.30482383    -0.72900
Ni547      Ni  0.28754482  0.98666123  0.22990838     1.25400
Ni548      Ni  0.22209837  0.00977721  0.25130740     1.25400
C549        C  0.25501882  0.00046782  0.31226459     0.89400
C550        C  0.26768003  0.48868289  0.14134309     0.89300
C551        C  0.28212061  0.56241565  0.20819506     0.89400
C552        C  0.23318251  0.93195144  0.24497721     0.89500
C553        C  0.26468832  0.62862032  0.21383888    -0.14800
C554        C  0.29239802  0.60106519  0.20324491    -0.30000
H555        H  0.23529819  0.62269660  0.22872091     0.14200
H556        H  0.32205725  0.60664486  0.18924478     0.14800
C557        C  0.24811894  0.86505192  0.23657366    -0.14800
C558        C  0.22168152  0.89352262  0.25063256    -0.30000
H559        H  0.27594096  0.87011532  0.21679119     0.14200
H560        H  0.19374666  0.88926983  0.27062192     0.14800
C561        C  0.23188967  0.72478291  0.10515733    -0.14800
C562        C  0.25112045  0.70686280  0.07027105    -0.30000
H563        H  0.20954111  0.74632694  0.10743511     0.14200
H564        H  0.27221866  0.68396554  0.06745261     0.14800
C565        C  0.27194423  0.81795884  0.39194230    -0.14800
C566        C  0.29532278  0.80015847  0.35861738    -0.30000
H567        H  0.24972736  0.83855003  0.39162927     0.14200
H568        H  0.31847560  0.78110908  0.35989830     0.14800
C569        C  0.08905033  0.74095354  0.30461913    -0.14800
C570        C  0.12128288  0.72487862  0.27954733    -0.30000
H571        H  0.08899348  0.76217764  0.32814176     0.14200
H572        H  0.11988324  0.70321490  0.25684967     0.14800
C573        C  0.39717573  0.74214329  0.25737035    -0.14800
C574        C  0.40052438  0.73927541  0.21932542    -0.30000
H575        H  0.36968152  0.74933826  0.27921893     0.14200
H576        H  0.42734250  0.72974934  0.19715403     0.14800
C577        C  0.36344984  0.75812669  0.47846837    -0.14800
C578        C  0.37951633  0.77428977  0.50509170    -0.30000
H579        H  0.39763260  0.73118992  0.93816338     0.14200
H580        H  0.36051535  0.78897875  0.53191641     0.14800
C581        C  0.12916390  0.74931406  0.96929923    -0.14800
C582        C  0.14805768  0.76876893  0.99146190    -0.30000
H583        H  0.13529979  0.72929495  0.43899231     0.14200
H584        H  0.13136410  0.78940012  0.01484417     0.14800
C585        C  0.23433176  0.02058690  0.38532648    -0.14800
C586        C  0.25607140  0.99834614  0.35336191    -0.30000
H587        H  0.21526159  0.04258526  0.38142633     0.14200
H588        H  0.23363124  0.53041714  0.34928757     0.14800
C589        C  0.25824731  0.51061931  0.07985311    -0.14800
C590        C  0.27183622  0.48457671  0.09827025    -0.30000
H591        H  0.24387183  0.53638492  0.09701634     0.14200
H592        H  0.28082794  0.97144268  0.10666603     0.14800
C593        C  0.50319105  0.87172976  0.26526502    -0.14800
C594        C  0.48136323  0.85142633  0.29228365    -0.30000
H595        H  0.03593327  0.84491701  0.22051110     0.14200
H596        H  0.45933396  0.86638097  0.31684947     0.14800
C597        C  0.50959199  0.59779393  0.26766615    -0.14800
C598        C  0.48765018  0.62371039  0.29599985    -0.30000
H599        H  0.53020092  0.60769571  0.24273358     0.14200
H600        H  0.98321557  0.60277258  0.29572573     0.14800
C601        C  0.98943942  0.88609316  0.45926790    -0.14800
C602        C  0.01369000  0.85686558  0.44054379    -0.30000
H603        H  0.97175777  0.88050281  0.97322706     0.14200
H604        H  0.52120641  0.88818611  0.45838641     0.14800
C605        C  0.48520115  0.64255524  0.05669806    -0.14800
C606        C  0.50210382  0.64863774  0.01944825    -0.30000
H607        H  0.47643144  0.66529968  0.56964628     0.14200
H608        H  0.97988063  0.65677146  0.05473276     0.14800
C609        C  0.37919707  0.51765977  0.43807580    -0.14800
C610        C  0.38557891  0.54600505  0.46173837    -0.30000
H611        H  0.39728782  0.48509222  0.95123287     0.14200
H612        H  0.34079604  0.08469558  0.50189039     0.14800
C613        C  0.11781478  0.97312185  0.03288240    -0.14800
C614        C  0.14924234  0.95357912  0.00971712    -0.30000
H615        H  0.12040602  0.99528634  0.05450894     0.14200
H616        H  0.15364796  0.44287524  0.49182160     0.14800
C617        C  0.49598687  0.99039720  0.38440102    -0.14800
C618        C  0.52500514  0.00230012  0.39685712    -0.30000
H619        H  0.10184737  0.48576708  0.32281944     0.14200
H620        H  0.55277220  0.00667816  0.37665893     0.14800
C621        C  0.00753062  0.52094696  0.12911632    -0.14800
C622        C  0.98579939  0.50071483  0.15576033    -0.30000
H623        H  0.45052133  0.55873846  0.20595456     0.14200
H624        H  0.95752571  0.49294597  0.15533956     0.14800
O625        O  0.08000307  0.95378295  0.99283300    -0.79200
O626        O  0.43539779  0.99898187  0.96811479    -0.63900
O627        O  0.02810948  0.49628791  0.95745166    -1.10500
C628        C  0.96154569  0.53124218  0.58302225     1.07600
O629        O  0.41478984  0.56352760  0.50949599    -0.77100
O630        O  0.44593972  0.59616972  0.56149210    -0.64700
Ni631      Ni  0.07332591  0.97267617  0.94721713     1.34900
C632        C  0.47995878  0.60553823  0.54706162     0.86400
O633        O  0.50584666  0.00425420  0.92250251    -0.77700
O634        O  0.06955072  0.99005651  0.89998834    -0.88000
C635        C  0.40177548  0.53186526  0.01148237     0.86000
O636        O  0.04632258  0.92936668  0.94034912    -0.66200
O637        O  0.42772425  0.53657178  0.60584690    -0.85400
C638        C  0.01093082  0.92375483  0.94955236     0.86800
C639        C  0.54044296  0.00542516  0.90122346     1.08300
H640        H  0.42400298  0.00976893  0.57715400     0.40200
O641        O  0.43289461  0.03349876  0.56850938    -1.08100
O642        O  0.02368337  0.55963900  0.49284080    -0.64800
Ni643      Ni  0.02328603  0.51118595  0.51070089     1.26300
O644        O  0.48527240  0.94666707  0.97058157    -0.65000
O645        O  0.99677695  0.53112034  0.56316502    -0.77300
C646        C  0.07536230  0.97392556  0.52420499     0.86200
O647        O  0.07048250  0.52103233  0.51973272    -0.64500
Ni648      Ni  0.42278228  0.54953716  0.55679443     1.27400
Ni649      Ni  0.48302876  0.00074000  0.97659266     1.26100
H650        H  0.03422662  0.51854281  0.94427428     0.40700
O651        O  0.98722566  0.48331470  0.66551091    -0.72800
O652        O  0.06841086  0.98106207  0.75395653    -0.72800
O653        O  0.04706563  0.92239554  0.71283881    -0.72900
O654        O  0.00572954  0.53066555  0.71780973    -0.72900
O655        O  0.45304073  0.55832779  0.79490076    -0.72800
O656        O  0.45970847  0.95127674  0.79127623    -0.72800
O657        O  0.49321244  0.00512729  0.82436666    -0.72800
O658        O  0.45629076  0.50888638  0.73264110    -0.72900
Ni659      Ni  0.00909423  0.47666451  0.70582376     1.25400
Ni660      Ni  0.45661100  0.00574310  0.79686233     1.25400
C661        C  0.48718035  0.51335139  0.70573079     0.89400
C662        C  0.52943412  0.00238058  0.80731182     0.90500
C663        C  0.48546453  0.93197278  0.76325200     0.89400
C664        C  0.48266249  0.57784961  0.78772234     0.89500
O665        O  0.21405465  0.53297096  0.97690057    -0.72800
O666        O  0.32093728  0.53670305  0.95249934    -0.72800
O667        O  0.27156871  0.53072063  0.90907535    -0.72900
O668        O  0.26118168  0.52803530  0.52000766    -0.72900
O669        O  0.24885206  0.98671103  0.54426704    -0.72800
O670        O  0.26921751  0.96999720  0.93307125    -0.72800
O671        O  0.30001255  0.99345213  0.47324836    -0.72800
O672        O  0.19314448  0.98065192  0.50914166    -0.72900
Ni673      Ni  0.26720163  0.53662727  0.96449162     1.25400
Ni674      Ni  0.24708140  0.98487238  0.49060458     1.25400
C675        C  0.16972424  0.00964492  0.52086062     0.89400
C676        C  0.31077615  0.03252356  0.98181591     0.89300
C677        C  0.25557892  0.99662529  0.91873907     0.89400
C678        C  0.24232688  0.01766891  0.56711983     0.89500
O679        O  0.07397643  0.73897576  0.94685190    -0.72800
O680        O  0.46612883  0.74221119  0.95314579    -0.72800
O681        O  0.02419720  0.78843796  0.93048168    -0.72900
O682        O  0.01509470  0.69393355  0.97279579    -0.72900
O683        O  0.48779146  0.72372751  0.53324077    -0.72800
O684        O  0.48822247  0.82874660  0.52090534    -0.72800
O685        O  0.43352683  0.77771559  0.53117759    -0.72800
O686        O  0.05018234  0.76420591  0.50249978    -0.72900
Ni687      Ni  0.01984470  0.74009002  0.94972726     1.25400
Ni688      Ni  0.48778017  0.77670005  0.52889907     1.25400
C689        C  0.07432258  0.75018199  0.46993776     0.89400
C690        C  0.42228547  0.77176633  0.50074969     0.89300
C691        C  0.49609658  0.83930621  0.48683682     0.89400
C692        C  0.49413388  0.69931978  0.50345112     0.89500
O693        O  0.46637556  0.74925903  0.73223171    -0.72800
O694        O  0.06499551  0.71819835  0.71706059    -0.72800
O695        O  0.01314110  0.67205174  0.70246605    -0.72900
O696        O  0.02015546  0.77989290  0.71615644    -0.72900
O697        O  0.45937772  0.81075887  0.81687787    -0.72800
O698        O  0.47320923  0.70229795  0.81093391    -0.72800
O699        O  0.03702148  0.71972972  0.78115758    -0.72800
O700        O  0.42559681  0.75104976  0.79233710    -0.72900
Ni701      Ni  0.01761029  0.72580369  0.70701011     1.25400
Ni702      Ni  0.46482209  0.75660096  0.81634079     1.25400
C703        C  0.43250851  0.74819060  0.75541926     0.89400
C704        C  0.06698427  0.71706511  0.75148131     0.89300
C705        C  0.49644658  0.68423657  0.77999626     0.89400
C706        C  0.47697653  0.82790624  0.78761747     0.89500
O707        O  0.35681897  0.71855011  0.67305657    -0.79200
O708        O  0.17951766  0.72634544  0.74710947    -0.63900
O709        O  0.27982003  0.75042815  0.69434775    -1.10500
C710        C  0.28646257  0.79261698  0.81597733     1.07600
O711        O  0.16380289  0.77023159  0.79797947    -0.77100
O712        O  0.21597388  0.81984036  0.76524330    -0.64700
Ni713      Ni  0.31305791  0.71545731  0.65360165     1.34900
C714        C  0.24786747  0.83058828  0.74523958     0.86400
O715        O  0.21662528  0.72914282  0.67383127    -0.77700
O716        O  0.27308276  0.70915143  0.62951910    -0.88000
C717        C  0.15511978  0.74445074  0.77608846     0.86000
O718        O  0.30075451  0.67158579  0.67902661    -0.66200
O719        O  0.25401026  0.80808332  0.81841256    -0.85400
C720        C  0.27061226  0.66343247  0.70419017     0.86800
C721        C  0.23693487  0.71697491  0.63962294     1.08300
H722        H  0.24338872  0.72560166  0.77962824     0.40200
O723        O  0.24249057  0.74813494  0.76714029    -1.08100
O724        O  0.27964218  0.81266040  0.74043457    -0.64800
Ni725      Ni  0.29291995  0.76045303  0.74047798     1.26300
O726        O  0.24191167  0.68620256  0.72006163    -0.65000
O727        O  0.30494222  0.76966662  0.78732574    -0.77300
C728        C  0.36609131  0.74466963  0.69411649     0.86200
O729        O  0.34268300  0.77141342  0.71262600    -0.64500
Ni730      Ni  0.21124079  0.78711883  0.80449538     1.27400
Ni731      Ni  0.22928172  0.73815703  0.72047988     1.26100
H732        H  0.27810109  0.77339441  0.68284239     0.40700
O733        O  0.24448982  0.70450654  0.50673411    -0.72800
O734        O  0.27683420  0.76021775  0.91371120    -0.72800
O735        O  0.30864703  0.73340850  0.46236760    -0.72900
O736        O  0.20067900  0.73447643  0.46538859    -0.72900
O737        O  0.20668135  0.79112980  0.00146738    -0.72800
O738        O  0.31693388  0.78403440  0.98911231    -0.72800
O739        O  0.27066408  0.81500477  0.95064393    -0.72800
O740        O  0.23232479  0.75776405  0.54689587    -0.72900
Ni741      Ni  0.25529958  0.73177778  0.46254350     1.25400
Ni742      Ni  0.26143306  0.78988640  0.99644074     1.25400
C743        C  0.23620548  0.72180315  0.54088836     0.89400
C744        C  0.27646067  0.79616714  0.91749000     0.89300
C745        C  0.33794060  0.75529867  0.96848974     0.89400
C746        C  0.17713535  0.76146734  0.48621705     0.89500
O747        O  0.27447280  0.99350960  0.78971439    -0.72800
O748        O  0.30626822  0.47532630  0.65052525    -0.72800
O749        O  0.31402154  0.53436567  0.69997543    -0.72900
O750        O  0.26590732  0.94054948  0.73418389    -0.72900
O751        O  0.20397913  0.95849219  0.74881709    -0.72800
O752        O  0.25177254  0.55083179  0.71424949    -0.72800
O753        O  0.24479045  0.49363866  0.66333084    -0.72800
O754        O  0.21287698  0.01200279  0.80390204    -0.72900
Ni755      Ni  0.28159674  0.99037695  0.73374556     1.25400
Ni756      Ni  0.21550120  0.01010785  0.74936554     1.25400
C757        C  0.24195944  0.00409310  0.81519379     0.89400
C758        C  0.27755400  0.48285739  0.63849424     0.89300
C759        C  0.28673676  0.55929292  0.70544906     0.89400
C760        C  0.23080922  0.93275412  0.74134809     0.89500
C761        C  0.26709482  0.62527466  0.71481159    -0.14800
C762        C  0.29528324  0.59834825  0.70054272    -0.30000
H763        H  0.23918862  0.61854532  0.73317457     0.14200
H764        H  0.32378900  0.60470047  0.68340685     0.14800
C765        C  0.24986984  0.86670608  0.72981274    -0.14800
C766        C  0.22148854  0.89348606  0.74320405    -0.30000
H767        H  0.27803404  0.87366233  0.71224561     0.14200
H768        H  0.19302233  0.88712830  0.76043457     0.14800
C769        C  0.21794590  0.71621468  0.60952197    -0.14800
C770        C  0.23576375  0.70059762  0.57340138    -0.30000
H771        H  0.19409569  0.73683580  0.61457809     0.14200
H772        H  0.25821457  0.67844014  0.56810413     0.14800
C773        C  0.28012313  0.81551861  0.88302644    -0.14800
C774        C  0.30186048  0.79841775  0.84869279    -0.30000
H775        H  0.25726887  0.83622740  0.88469905     0.14200
H776        H  0.32539700  0.77886546  0.84800621     0.14800
C777        C  0.10496086  0.71400968  0.75593095    -0.14800
C778        C  0.11465822  0.73680513  0.78257897    -0.30000
H779        H  0.12697015  0.69855263  0.73170904     0.14200
H780        H  0.09279271  0.75404969  0.80542297     0.14800
C781        C  0.40001459  0.74503422  0.74062001    -0.14800
C782        C  0.40228782  0.74151268  0.70286396    -0.30000
H783        H  0.37218115  0.74710576  0.76253707     0.14200
H784        H  0.42943681  0.73683301  0.67980814     0.14800
C785        C  0.38080602  0.75006539  0.96316125    -0.14800
C786        C  0.39900838  0.76463519  0.98854572    -0.30000
H787        H  0.38244143  0.74142092  0.45294806     0.14200
H788        H  0.38167700  0.78193933  0.01454226     0.14800
C789        C  0.11726756  0.74633206  0.46482001    -0.14800
C790        C  0.13450265  0.76366381  0.48985847    -0.30000
H791        H  0.14626811  0.73006630  0.94477398     0.14200
H792        H  0.11632093  0.78214026  0.51445493     0.14800
C793        C  0.26109935  0.99268634  0.87540882    -0.14800
C794        C  0.23711840  0.00868339  0.85841484    -0.30000
H795        H  0.28494290  0.97413308  0.85701334     0.14200
H796        H  0.23358403  0.52596650  0.84726636     0.14800
C797        C  0.26514650  0.50187287  0.57763092    -0.14800
C798        C  0.28273530  0.47841654  0.59525816    -0.30000
H799        H  0.24709941  0.52550974  0.59561827     0.14200
H800        H  0.28149018  0.97575513  0.60531505     0.14800
C801        C  0.48918835  0.89000107  0.76084217    -0.14800
C802        C  0.47090053  0.86974089  0.78991164    -0.30000
H803        H  0.04560012  0.84817246  0.70295822     0.14200
H804        H  0.45139331  0.88426594  0.81655660     0.14800
C805        C  0.47714246  0.61963939  0.79530264    -0.14800
C806        C  0.50309007  0.64258394  0.77617690    -0.30000
H807        H  0.44982058  0.63175623  0.81480266     0.14200
H808        H  0.01689615  0.59869249  0.69762412     0.14800
C809        C  0.99960384  0.88476944  0.95304426    -0.14800
C810        C  0.02474560  0.85516699  0.93759465    -0.30000
H811        H  0.96254048  0.88121958  0.48073520     0.14200
H812        H  0.55362246  0.85672327  0.91781633     0.14800
C813        C  0.48520324  0.64575795  0.54329096    -0.14800
C814        C  0.49425527  0.65868206  0.50819039    -0.30000
H815        H  0.47313524  0.66626834  0.07850032     0.14200
H816        H  0.96739257  0.65063452  0.54203607     0.14800
C817        C  0.37780476  0.51001403  0.95807862    -0.14800
C818        C  0.37933156  0.53741236  0.98542866    -0.30000
H819        H  0.40082632  0.49472303  0.42558619     0.14200
H820        H  0.37929380  0.00384414  0.94245670     0.14800
C821        C  0.11418564  0.97295187  0.52646402    -0.14800
C822        C  0.12871699  0.00538402  0.53433503    -0.30000
H823        H  0.13286903  0.94799612  0.51321806     0.14200
H824        H  0.14237993  0.52821864  0.99735511     0.14800
C825        C  0.55459287  0.99920813  0.83146330    -0.14800
C826        C  0.54525842  0.02152451  0.86488674    -0.30000
H827        H  0.04681444  0.46370211  0.81239569     0.14200
H828        H  0.52714836  0.04689480  0.86749366     0.14800
C829        C  0.95402884  0.52989952  0.62446985    -0.14800
C830        C  0.93757251  0.50022351  0.64096412    -0.30000
H831        H  0.42605754  0.52713649  0.67863851     0.14200
H832        H  0.92048453  0.48236980  0.62772620     0.14800
O833        O  0.57720935  0.47736911  0.51722382    -0.79200
O834        O  0.95575334  0.47944493  0.43358246    -0.63900
O835        O  0.50224668  0.03338188  0.52655452    -1.10500
C836        C  0.45961544  0.00932570  0.11804753     1.07600
O837        O  0.91690452  0.05336302  0.00282996    -0.77100
O838        O  0.95081054  0.07982450  0.05401084    -0.64700
Ni839      Ni  0.57588571  0.48312109  0.46556976     1.34900
C840        C  0.98646262  0.08327398  0.04664652     0.86400
O841        O  0.03031710  0.46611115  0.39264165    -0.77700
O842        O  0.57566209  0.48900028  0.41346364    -0.88000
C843        C  0.89851312  0.02832768  0.48776227     0.86000
O844        O  0.54700425  0.43958214  0.46741340    -0.66200
O845        O  0.92498223  0.02178863  0.09864862    -0.85400
C846        C  0.51212328  0.43531589  0.47055440     0.86800
C847        C  0.06262065  0.44755268  0.37811516     1.08300
H848        H  0.96906342  0.48212079  0.03580333     0.40200
O849        O  0.97532561  0.50431332  0.02254111    -1.08100
O850        O  0.50968903  0.05386434  0.05093288    -0.64800
Ni851      Ni  0.50998152  0.99910597  0.04008559     1.26300
O852        O  0.99696455  0.43246723  0.45658296    -0.65000
O853        O  0.48915011  0.99332467  0.09290557    -0.77300
C854        C  0.57372725  0.49891950  0.05886459     0.86200
O855        O  0.55926845  0.99535853  0.04592514    -0.64500
Ni856      Ni  0.92181518  0.03721600  0.05008262     1.27400
Ni857      Ni  0.00284311  0.48324523  0.44500699     1.26100
H858        H  0.51139256  0.05692498  0.51756341     0.40700
O859        O  0.51979926  0.98650241  0.21312177    -0.72800
O860        O  0.56291998  0.47691127  0.26878472    -0.72800
O861        O  0.52786318  0.42678536  0.23267862    -0.72900
O862        O  0.51918464  0.04118914  0.27067299    -0.72900
O863        O  0.97774046  0.03075674  0.26190932    -0.72800
O864        O  0.00582157  0.42289496  0.24797865    -0.72800
O865        O  0.03213363  0.47129679  0.29439852    -0.72800
O866        O  0.95782746  0.97237224  0.22020754    -0.72900
Ni867      Ni  0.52587206  0.98695355  0.26360934     1.25400
Ni868      Ni  0.00436911  0.47737374  0.25853977     1.25400
C869        C  0.98088177  0.96816219  0.18552023     0.89400
C870        C  0.06883147  0.46835120  0.28409563     0.90500
C871        C  0.03442469  0.40402195  0.22273755     0.89400
C872        C  0.00629586  0.04679343  0.24096017     0.89500
O873        O  0.66352289  0.03913193  0.54623688    -0.72800
O874        O  0.76621417  0.06683333  0.51813398    -0.72800
O875        O  0.71555064  0.05164287  0.47761821    -0.72900
O876        O  0.74380972  0.01818054  0.07360049    -0.72900
O877        O  0.75630010  0.46286825  0.04648899    -0.72800
O878        O  0.76408905  0.46675714  0.43747666    -0.72800
O879        O  0.80879856  0.46824558  0.97532662    -0.72800
O880        O  0.70342615  0.44887918  0.00910975    -0.72900
Ni881      Ni  0.71407683  0.05477630  0.53211154     1.25400
Ni882      Ni  0.75682337  0.45646903  0.99190487     1.25400
C883        C  0.67887907  0.47691776  0.01888353     0.89400
C884        C  0.82451716  0.51813426  0.47096311     0.89300
C885        C  0.75483812  0.49547630  0.42270479     0.89400
C886        C  0.74725257  0.49498450  0.06733467     0.89500
O887        O  0.56116919  0.24875554  0.47202275    -0.72800
O888        O  0.94666156  0.23642759  0.49030121    -0.72800
O889        O  0.51489335  0.29944451  0.45280758    -0.72900
O890        O  0.50134128  0.20445980  0.49412956    -0.72900
O891        O  0.98428014  0.21862923  0.06107053    -0.72800
O892        O  0.99677029  0.31000677  0.01317195    -0.72800
O893        O  0.93665865  0.26807095  0.04216503    -0.72800
O894        O  0.54445879  0.25393605  0.03534965    -0.72900
Ni895      Ni  0.50807577  0.25085194  0.47151521     1.25400
Ni896      Ni  0.99074190  0.26549367  0.03894350     1.25400
C897        C  0.56994357  0.24351990  0.00233934     0.89400
C898        C  0.92392163  0.25312543  0.01512119     0.89300
C899        C  0.00402121  0.30886104  0.97626980     0.89400
C900        C  0.98770122  0.18743195  0.03960591     0.89500
O901        O  0.99198095  0.22426503  0.17936508    -0.72800
O902        O  0.55554251  0.24373599  0.28067567    -0.72800
O903        O  0.52781698  0.18119209  0.25372284    -0.72900
O904        O  0.51201047  0.28815140  0.25273126    -0.72900
O905        O  0.99573471  0.28001263  0.26358085    -0.72800
O906        O  0.00160397  0.17090438  0.25406166    -0.72800
O907        O  0.50976241  0.24629458  0.33797292    -0.72800
O908        O  0.95530725  0.22527028  0.24111885    -0.72900
Ni909      Ni  0.52151410  0.23448297  0.25130547     1.25400
Ni910      Ni  0.99719431  0.22558945  0.26110980     1.25400
C911        C  0.95907898  0.22538289  0.20491273     0.89400
C912        C  0.54468901  0.24832947  0.31790651     0.89300
C913        C  0.02127910  0.15218701  0.22168739     0.89400
C914        C  0.01419712  0.29750604  0.23496001     0.89500
O915        O  0.84491578  0.22243963  0.20005029    -0.79200
O916        O  0.66578386  0.23699876  0.27841112    -0.63900
O917        O  0.76900620  0.25295312  0.22865094    -1.10500
C918        C  0.77671860  0.28604252  0.35132798     1.07600
O919        O  0.65321019  0.27151586  0.33601321    -0.77100
O920        O  0.70778904  0.32133782  0.30136579    -0.64700
Ni921      Ni  0.79678845  0.21312110  0.19043183     1.34900
C922        C  0.74086747  0.33044534  0.28193272     0.86400
O923        O  0.70584119  0.24355596  0.20582995    -0.77700
O924        O  0.75271795  0.20070234  0.17363661    -0.88000
C925        C  0.64388335  0.24858889  0.31190936     0.86000
O926        O  0.78596198  0.17754268  0.22768503    -0.66200
O927        O  0.74641847  0.30515611  0.35279454    -0.85400
C928        C  0.75215348  0.16993547  0.24601509     0.86800
C929        C  0.72266068  0.22091242  0.17613645     1.08300
H930        H  0.72805499  0.22440046  0.31154786     0.40200
O931        O  0.72969492  0.24819756  0.30076367    -1.08100
O932        O  0.77140030  0.31079369  0.27859650    -0.64800
Ni933      Ni  0.78131348  0.25740964  0.27589014     1.26300
O934        O  0.72321058  0.19175476  0.24957219    -0.65000
O935        O  0.79264085  0.26134177  0.32337839    -0.77300
C936        C  0.85529297  0.24679271  0.22218785     0.86200
O937        O  0.83219282  0.26658470  0.25073070    -0.64500
Ni938      Ni  0.70181111  0.28728478  0.34016211     1.27400
Ni939      Ni  0.71687161  0.24545362  0.25344479     1.26100
H940        H  0.77135069  0.27619947  0.21687130     0.40700
O941        O  0.73770593  0.19612045  0.04055741    -0.72800
O942        O  0.76353998  0.25741770  0.45117735    -0.72800
O943        O  0.80373407  0.21561850  0.98948264    -0.72900
O944        O  0.69494013  0.22415790  0.99741400    -0.72900
O945        O  0.69049863  0.29589201  0.53441059    -0.72800
O946        O  0.79861467  0.28127196  0.52932330    -0.72800
O947        O  0.75903233  0.31337663  0.48564529    -0.72800
O948        O  0.73173489  0.25280511  0.07397304    -0.72900
Ni949      Ni  0.74973136  0.21782762  0.99247970     1.25400
Ni950      Ni  0.74423271  0.29083781  0.53313538     1.25400
C951        C  0.73129316  0.21699949  0.07271553     0.89400
C952        C  0.76578330  0.29312312  0.45312661     0.89300
C953        C  0.81815641  0.25094316  0.51075756     0.89400
C954        C  0.67405806  0.25373086  0.01589963     0.89500
O955        O  0.77532383  0.49564265  0.29442237    -0.72800
O956        O  0.77064682  0.99185400  0.20310926    -0.72800
O957        O  0.78787699  0.04262052  0.25521175    -0.72900
O958        O  0.76473387  0.43711659  0.24700704    -0.72900
O959        O  0.70306282  0.45559706  0.26103635    -0.72800
O960        O  0.72602261  0.06170932  0.27913771    -0.72800
O961        O  0.70897719  0.01086005  0.22793199    -0.72800
O962        O  0.71405569  0.51517111  0.30809780    -0.72900
Ni963      Ni  0.78138157  0.48627875  0.23902278     1.25400
Ni964      Ni  0.71557842  0.50646525  0.25365107     1.25400
C965        C  0.74319576  0.50780050  0.31955499     0.89400
C966        C  0.73862373  0.00204769  0.19813794     0.89300
C967        C  0.76135200  0.06881080  0.26553090     0.89400
C968        C  0.72927459  0.43001502  0.25758768     0.89500
C969        C  0.74440159  0.13399664  0.26185198    -0.14800
C970        C  0.77171869  0.10730195  0.25858845    -0.30000
H971        H  0.71443351  0.12831555  0.27397741     0.14200
H972        H  0.80174002  0.11254822  0.24611766     0.14800
C973        C  0.74642907  0.36574010  0.26438186    -0.14800
C974        C  0.71869180  0.39226799  0.26821679    -0.30000
H975        H  0.77603773  0.37117299  0.24981580     0.14200
H976        H  0.68888439  0.38740403  0.28240857     0.14800
C977        C  0.70837261  0.22065408  0.14263125    -0.14800
C978        C  0.72653684  0.20011664  0.10886623    -0.30000
H979        H  0.68874779  0.24414824  0.14295114     0.14200
H980        H  0.74512268  0.17560109  0.10785456     0.14800
C981        C  0.77306057  0.31074318  0.41717413    -0.14800
C982        C  0.79233160  0.29007478  0.38393314    -0.30000
H983        H  0.75374077  0.33438581  0.41731995     0.14200
H984        H  0.81269930  0.26761864  0.38456948     0.14800
C985        C  0.57420430  0.25555150  0.33652876    -0.14800
C986        C  0.60621824  0.23359731  0.32165744    -0.30000
H987        H  0.57417923  0.28317166  0.35178422     0.14200
H988        H  0.60478725  0.20670118  0.30545295     0.14800
C989        C  0.92406049  0.22808001  0.19400999    -0.14800
C990        C  0.89559272  0.25115154  0.21775817    -0.30000
H991        H  0.92003157  0.20852783  0.17097445     0.14200
H992        H  0.90165566  0.27097076  0.23957504     0.14800
C993        C  0.86075497  0.24392423  0.50578500    -0.14800
C994        C  0.88122663  0.26286535  0.52651987    -0.30000
H995        H  0.87837169  0.21551195  0.97734582     0.14200
H996        H  0.86590933  0.28460275  0.54941392     0.14800
C997        C  0.61260438  0.23866205  0.99823169    -0.14800
C998        C  0.63114476  0.25792438  0.02090173    -0.30000
H999        H  0.63141948  0.23748207  0.47477286     0.14200
H1000       H  0.61435027  0.27911041  0.04361202     0.14800
C1001       C  0.75745961  0.49102087  0.38009083    -0.14800
C1002       C  0.73943247  0.51395010  0.36240593    -0.30000
H1003       H  0.77455907  0.46666298  0.36249601     0.14200
H1004       H  0.77189927  0.98342525  0.38361149     0.14800
C1005       C  0.75519074  0.98394233  0.12493136    -0.14800
C1006       C  0.73507941  0.00569342  0.15806726    -0.30000
H1007       H  0.77444497  0.96129845  0.12725357     0.14200
H1008       H  0.77857959  0.45396916  0.11314387     0.14800
C1009       C  0.03547934  0.36170019  0.21590683    -0.14800
C1010       C  0.01208974  0.33990430  0.24037411    -0.30000
H1011       H  0.52527829  0.35426114  0.23061645     0.14200
H1012       H  0.99124091  0.35362996  0.26660977     0.14800
C1013       C  0.00353591  0.08893823  0.24381504    -0.14800
C1014       C  0.02527022  0.10993939  0.21744938    -0.30000
H1015       H  0.98141650  0.10330994  0.26867954     0.14200
H1016       H  0.53886048  0.10938399  0.26070362     0.14800
C1017       C  0.49748259  0.39762610  0.47635021    -0.14800
C1018       C  0.51937743  0.36588537  0.46080819    -0.30000
H1019       H  0.46267784  0.38130294  0.03869648     0.14200
H1020       H  0.03406757  0.33977570  0.43118176     0.14800
C1021       C  0.00109502  0.12087471  0.04208311    -0.14800
C1022       C  0.97903087  0.15238473  0.05752481    -0.30000
H1023       H  0.02495809  0.12171817  0.52563275     0.14200
H1024       H  0.46729903  0.12687930  0.00532874     0.14800
C1025       C  0.83244072  0.05136094  0.50076748    -0.14800
C1026       C  0.86116724  0.02628171  0.48179602    -0.30000
H1027       H  0.87350469  0.97000608  0.96465046     0.14200
H1028       H  0.88637914  0.47402117  0.43126317     0.14800
C1029       C  0.61409961  0.49934700  0.05572811    -0.14800
C1030       C  0.63849863  0.47084329  0.03501672    -0.30000
H1031       H  0.62463304  0.52556472  0.06491739     0.14200
H1032       H  0.60948692  0.96774935  0.54812910     0.14800
C1033       C  0.08712190  0.46253366  0.31350361    -0.14800
C1034       C  0.07376540  0.43624323  0.33679551    -0.30000
H1035       H  0.46892986  0.98513291  0.40543291     0.14200
H1036       H  0.05754651  0.41432832  0.32746710     0.14800
C1037       C  0.45607305  0.00567990  0.15924890    -0.14800
C1038       C  0.48556213  0.98948914  0.16814940    -0.30000
H1039       H  0.92877637  0.01499527  0.17186124     0.14200
H1040       H  0.51178205  0.97966053  0.14522217     0.14800
O1041       O  0.56218954  0.47129580  0.04184753    -0.79200
O1042       O  0.92155136  0.49544436  0.98674844    -0.63900
O1043       O  0.52987947  0.00418209  0.98652665    -1.10500
C1044       C  0.41569327  0.05211184  0.65555188     1.07600
O1045       O  0.90389745  0.05286339  0.51306991    -0.77100
O1046       O  0.94539145  0.08199049  0.55688355    -0.64700
Ni1047     Ni  0.55817893  0.47699465  0.99151822     1.34900
C1048       C  0.98085894  0.08420766  0.55232557     0.86400
O1049       O  0.97519186  0.48250817  0.91882077    -0.77700
O1050       O  0.55303811  0.48299996  0.94113855    -0.88000
C1051       C  0.90980125  0.02974570  0.97803023     0.86000
O1052       O  0.53132243  0.43217177  0.99346022    -0.66200
O1053       O  0.92123347  0.02850597  0.60798074    -0.85400
C1054       C  0.49649410  0.42599770  0.00871139     0.86800
C1055       C  0.00167162  0.47159229  0.88750316     1.08300
H1056       H  0.96973677  0.47667257  0.51223810     0.40200
O1057       O  0.97836956  0.49854584  0.49920892    -1.08100
O1058       O  0.47742917  0.09447362  0.57771760    -0.64800
Ni1059     Ni  0.47793584  0.04115735  0.58179101     1.26300
O1060       O  0.97437839  0.44093172  0.97819565    -0.65000
O1061       O  0.45132542  0.04851046  0.63628253    -0.77300
C1062       C  0.58411480  0.50516992  0.53812610     0.86200
O1063       O  0.52538520  0.04517868  0.59233267    -0.64500
Ni1064     Ni  0.91418872  0.04016169  0.55955209     1.27400
Ni1065     Ni  0.97481035  0.49357474  0.97095175     1.26100
H1066       H  0.53767291  0.02947525  0.98319288     0.40700
O1067       O  0.47352641  0.00376109  0.71125091    -0.72800
O1068       O  0.52488670  0.50280553  0.81398522    -0.72800
O1069       O  0.52867631  0.45356759  0.75147148    -0.72900
O1070       O  0.50703821  0.05750548  0.74529773    -0.72900
O1071       O  0.97976415  0.03015638  0.76774451    -0.72800
O1072       O  0.94928693  0.42183406  0.73709370    -0.72800
O1073       O  0.96647533  0.47130249  0.78851800    -0.72800
O1074       O  0.95837761  0.97226070  0.72639924    -0.72900
Ni1075     Ni  0.50997281  0.00271191  0.73899594     1.25400
Ni1076     Ni  0.94498109  0.47636717  0.74804232     1.25400
C1077       C  0.97781603  0.97091769  0.69056761     0.89400
C1078       C  0.00258513  0.46947757  0.78311042     0.90500
C1079       C  0.98039776  0.40420526  0.71482300     0.89400
C1080       C  0.00520152  0.04890705  0.74568702     0.89500
O1081       O  0.68512694  0.01626681  0.04327953    -0.72800
O1082       O  0.79203874  0.02295775  0.99985261    -0.72800
O1083       O  0.73279323  0.02008882  0.96934346    -0.72900
O1084       O  0.71336290  0.05305197  0.58570858    -0.72900
O1085       O  0.76569385  0.47507773  0.54471882    -0.72800
O1086       O  0.75666635  0.45494238  0.93797591    -0.72800
O1087       O  0.81685394  0.48365346  0.47353608    -0.72800
O1088       O  0.71281173  0.45832174  0.50834341    -0.72900
Ni1089     Ni  0.73817210  0.02161455  0.02186561     1.25400
Ni1090     Ni  0.76559052  0.46878518  0.49073259     1.25400
C1091       C  0.68682467  0.48510751  0.51817941     0.89400
C1092       C  0.81828460  0.50215313  0.97353943     0.89300
C1093       C  0.75013374  0.48439016  0.92255431     0.89400
C1094       C  0.75526636  0.50665113  0.56614714     0.89500
O1095       O  0.55907159  0.23589534  0.97195145    -0.72800
O1096       O  0.94761668  0.23521403  0.98423008    -0.72800
O1097       O  0.51049266  0.29333395  0.96688076    -0.72900
O1098       O  0.49961461  0.18949287  0.98227378    -0.72900
O1099       O  0.98438241  0.21930538  0.56646954    -0.72800
O1100       O  0.99947457  0.30912248  0.51637411    -0.72800
O1101       O  0.93768262  0.27002294  0.54750539    -0.72800
O1102       O  0.54618380  0.27848714  0.53184607    -0.72900
Ni1103     Ni  0.50561029  0.24079632  0.97236590     1.25400
Ni1104     Ni  0.99205980  0.26561597  0.54327725     1.25400
C1105       C  0.57169438  0.26236420  0.50112491     0.89400
C1106       C  0.92390883  0.25562333  0.52099472     0.89300
C1107       C  0.00678822  0.30717544  0.47941457     0.89400
C1108       C  0.98650182  0.18797154  0.54553859     0.89500
O1109       O  0.95707796  0.21768161  0.69831854    -0.72800
O1110       O  0.55077857  0.25320835  0.76564848    -0.72800
O1111       O  0.51713746  0.20071795  0.73067363    -0.72900
O1112       O  0.51265077  0.30961890  0.74404526    -0.72900
O1113       O  0.97327258  0.28295442  0.76833179    -0.72800
O1114       O  0.99686824  0.17532070  0.76286481    -0.72800
O1115       O  0.50354228  0.25311520  0.82161111    -0.72800
O1116       O  0.93610874  0.21947466  0.76308405    -0.72900
Ni1117     Ni  0.51669795  0.25512318  0.73542626     1.25400
Ni1118     Ni  0.98456262  0.22943497  0.76825953     1.25400
C1119       C  0.93014409  0.21599631  0.73015089     0.89400
C1120       C  0.53903804  0.25211319  0.80248951     0.89300
C1121       C  0.01088118  0.15618063  0.72925187     0.89400
C1122       C  0.98081744  0.29927613  0.73697128     0.89500
O1123       O  0.81928320  0.20983829  0.68862454    -0.79200
O1124       O  0.64489453  0.25357384  0.78738372    -0.63900
O1125       O  0.74954588  0.24982220  0.72791546    -1.10500
C1126       C  0.77063209  0.27587821  0.84640550     1.07600
O1127       O  0.64474858  0.29732200  0.83568774    -0.77100
O1128       O  0.71072005  0.32783134  0.79784473    -0.64700
Ni1129     Ni  0.76689858  0.20700583  0.68967196     1.34900
C1130       C  0.74495489  0.32965499  0.77640830     0.86400
O1131       O  0.68158173  0.25157410  0.71153941    -0.77700
O1132       O  0.71703482  0.20008464  0.68467769    -0.88000
C1133       C  0.62767004  0.27628359  0.81695157     0.86000
O1134       O  0.75660962  0.17596089  0.73071062    -0.66200
O1135       O  0.74487291  0.30136332  0.84878123    -0.85400
C1136       C  0.72287306  0.17230524  0.75277212     0.86800
C1137       C  0.69515807  0.22714220  0.68264778     1.08300
H1138       H  0.70718538  0.23108899  0.81557339     0.40200
O1139       O  0.71346197  0.25314814  0.80209688    -1.08100
O1140       O  0.77080844  0.30357540  0.77193377    -0.64800
Ni1141     Ni  0.76624273  0.24982491  0.77282180     1.26300
O1142       O  0.69548231  0.19718774  0.75824262    -0.65000
O1143       O  0.78092651  0.24997335  0.81844989    -0.77300
C1144       C  0.83587568  0.22544902  0.71144428     0.86200
O1145       O  0.81847128  0.24452380  0.74363164    -0.64500
Ni1146     Ni  0.69627311  0.29700403  0.83877133     1.27400
Ni1147     Ni  0.69666367  0.25146055  0.75740092     1.26100
H1148       H  0.75529107  0.27249332  0.71540022     0.40700
O1149       O  0.73228264  0.20922205  0.54371468    -0.72800
O1150       O  0.76217200  0.24322932  0.94714251    -0.72800
O1151       O  0.80154928  0.22584533  0.49485766    -0.72900
O1152       O  0.69434190  0.24079145  0.49906227    -0.72900
O1153       O  0.68959897  0.28020477  0.03141344    -0.72800
O1154       O  0.79862331  0.27168903  0.02344808    -0.72800
O1155       O  0.75634746  0.29985547  0.98062795    -0.72800
O1156       O  0.72877061  0.26504776  0.57812344    -0.72900
Ni1157     Ni  0.74814594  0.23139031  0.49599287     1.25400
Ni1158     Ni  0.74382778  0.27811598  0.02858383     1.25400
C1159       C  0.72442070  0.22969120  0.57628092     0.89400
C1160       C  0.76365939  0.27897303  0.94839441     0.89300
C1161       C  0.81934361  0.24207849  0.00477689     0.89400
C1162       C  0.67443342  0.27076572  0.51774445     0.89500
O1163       O  0.77810660  0.49357707  0.79320720    -0.72800
O1164       O  0.75901597  0.99369210  0.71121121    -0.72800
O1165       O  0.76353040  0.04831470  0.76672958    -0.72900
O1166       O  0.77314958  0.43706016  0.74050882    -0.72900
O1167       O  0.71086423  0.45233283  0.75299638    -0.72800
O1168       O  0.70052933  0.06138554  0.78228823    -0.72800
O1169       O  0.69617803  0.00698623  0.72684564    -0.72800
O1170       O  0.71598967  0.50910785  0.80602589    -0.72900
Ni1171     Ni  0.78606276  0.48799263  0.73716824     1.25400
Ni1172     Ni  0.71943157  0.50436969  0.75103991     1.25400
C1173       C  0.74487020  0.50235487  0.81806415     0.89400
C1174       C  0.72908056  0.99997541  0.70080595     0.89300
C1175       C  0.73484437  0.07191631  0.77353576     0.89400
C1176       C  0.73835677  0.42798443  0.74879850     0.89500
C1177       C  0.71419713  0.13677802  0.76964527    -0.14800
C1178       C  0.74226382  0.11127553  0.76809843    -0.30000
H1179       H  0.68435987  0.13018679  0.78025746     0.14200
H1180       H  0.77201829  0.11826819  0.75795846     0.14800
C1181       C  0.75577025  0.36404216  0.75821568    -0.14800
C1182       C  0.72902718  0.38961707  0.75669395    -0.30000
H1183       H  0.78595990  0.36954823  0.74850194     0.14200
H1184       H  0.69892946  0.38364433  0.76585478     0.14800
C1185       C  0.69043495  0.23342670  0.64516217    -0.14800
C1186       C  0.71156532  0.21255465  0.61255807    -0.30000
H1187       H  0.67674221  0.26023553  0.64331916     0.14200
H1188       H  0.72457489  0.18517088  0.61356420     0.14800
C1189       C  0.77095175  0.29601857  0.91208570    -0.14800
C1190       C  0.78678382  0.27437245  0.87841376    -0.30000
H1191       H  0.75512655  0.32241138  0.91302933     0.14200
H1192       H  0.80376784  0.24883641  0.87802604     0.14800
C1193       C  0.56771142  0.24892986  0.82214835    -0.14800
C1194       C  0.58596167  0.27948363  0.82812069    -0.30000
H1195       H  0.58251602  0.22135846  0.81795816     0.14200
H1196       H  0.57198123  0.30736298  0.83163649     0.14800
C1197       C  0.89076900  0.21194298  0.73083469    -0.14800
C1198       C  0.87732890  0.21968416  0.70191261    -0.30000
H1199       H  0.87070966  0.20726236  0.75878727     0.14200
H1200       H  0.89610986  0.22369025  0.67321388     0.14800
C1201       C  0.86210953  0.23760112  0.99929756    -0.14800
C1202       C  0.88122599  0.25798263  0.02038449    -0.30000
H1203       H  0.87581731  0.22108115  0.48411602     0.14200
H1204       H  0.86465764  0.27882217  0.04361858     0.14800
C1205       C  0.61398093  0.25760549  0.49825539    -0.14800
C1206       C  0.63204191  0.27671955  0.52142412    -0.30000
H1207       H  0.62989173  0.21936894  0.97385521     0.14200
H1208       H  0.61533800  0.29829622  0.54372297     0.14800
C1209       C  0.75493244  0.48110313  0.87934933    -0.14800
C1210       C  0.73933123  0.50597035  0.86135681    -0.30000
H1211       H  0.77176206  0.45665867  0.86164895     0.14200
H1212       H  0.69409626  0.02860987  0.90982474     0.14800
C1213       C  0.71706989  0.02361901  0.64158905    -0.14800
C1214       C  0.73329392  0.99781505  0.65791284    -0.30000
H1215       H  0.70006208  0.04731970  0.66057413     0.14200
H1216       H  0.78534084  0.46223601  0.60943584     0.14800
C1217       C  0.98520398  0.36208163  0.71014442    -0.14800
C1218       C  0.97142361  0.34083735  0.73978189    -0.30000
H1219       H  0.53078732  0.37945472  0.73216528     0.14200
H1220       H  0.95446976  0.35478226  0.76796192     0.14800
C1221       C  0.99956659  0.09122094  0.75092200    -0.14800
C1222       C  0.01877953  0.11415285  0.72497171    -0.30000
H1223       H  0.97731053  0.10386096  0.77668189     0.14200
H1224       H  0.51881110  0.12679856  0.72457826     0.14800
C1225       C  0.48687569  0.38671231  0.01423031    -0.14800
C1226       C  0.50803189  0.35794164  0.98976906    -0.30000
H1227       H  0.46905307  0.39600383  0.49664157     0.14200
H1228       H  0.02912199  0.34430807  0.92984766     0.14800
C1229       C  0.99720596  0.12100974  0.54746800    -0.14800
C1230       C  0.97689548  0.15327745  0.56385826    -0.30000
H1231       H  0.02908216  0.12264682  0.02097230     0.14200
H1232       H  0.50351743  0.14210624  0.52509759     0.14800
C1233       C  0.85540253  0.99593072  0.97291476    -0.14800
C1234       C  0.87071632  0.02899391  0.97650454    -0.30000
H1235       H  0.83769088  0.07777724  0.51513531     0.14200
H1236       H  0.84821353  0.55662581  0.00690739     0.14800
C1237       C  0.62019820  0.50508942  0.54677009    -0.14800
C1238       C  0.64671157  0.47681599  0.53099070    -0.30000
H1239       H  0.62804731  0.53173509  0.55834360     0.14200
H1240       H  0.61362080  0.00858247  0.07151188     0.14800
C1241       C  0.01622859  0.46667468  0.81661511    -0.14800
C1242       C  0.99077990  0.47019598  0.85221225    -0.30000
H1243       H  0.57132316  0.97283342  0.82796727     0.14200
H1244       H  0.96031940  0.47437619  0.85607694     0.14800
C1245       C  0.40602702  0.04606300  0.69651510    -0.14800
C1246       C  0.41252552  0.01111865  0.70431354    -0.30000
H1247       H  0.92951264  0.02280473  0.67982843     0.14200
H1248       H  0.41378928  0.98782495  0.68229855     0.14800
O1249       O  0.54254009  0.99060265  0.55742733    -0.79200
O1250       O  0.92433416  0.00343739  0.46949371    -0.63900
O1251       O  0.53595210  0.52095984  0.48563615    -1.10500
C1252       C  0.44651535  0.54358277  0.14780050     1.07600
O1253       O  0.91600288  0.55280332  0.01764955    -0.77100
O1254       O  0.97245354  0.58525035  0.04054738    -0.64700
Ni1255     Ni  0.54439523  0.99795861  0.50552578     1.34900
C1256       C  0.00582318  0.58766458  0.01736515     0.86400
O1257       O  0.99459468  0.00693014  0.42154324    -0.77700
O1258       O  0.54573688  0.00421135  0.45294183    -0.88000
C1259       C  0.93116427  0.50701959  0.44413589     0.86000
O1260       O  0.51860976  0.95313455  0.50264069    -0.66200
O1261       O  0.96489483  0.53524244  0.09488908    -0.85400
C1262       C  0.48376354  0.94635206  0.50878868     0.86800
C1263       C  0.02861331  0.00388359  0.39838017     1.08300
H1264       H  0.95260967  0.97711036  0.02513383     0.40200
O1265       O  0.96236666  0.00159355  0.02080456    -1.08100
O1266       O  0.50114798  0.57843822  0.06167338    -0.64800
Ni1267     Ni  0.50079766  0.52572720  0.07030546     1.26300
O1268       O  0.97428288  0.95103706  0.47028906    -0.65000
O1269       O  0.48089534  0.53747555  0.12527695    -0.77300
C1270       C  0.58090265  0.96656227  0.02873653     0.86200
O1271       O  0.55165962  0.52820141  0.07286214    -0.64500
Ni1272     Ni  0.94189111  0.54360111  0.05533151     1.27400
Ni1273     Ni  0.97330935  0.00484463  0.47569809     1.26100
H1274       H  0.54653255  0.54397459  0.47650380     0.40700
O1275       O  0.49789659  0.48474916  0.20503394    -0.72800
O1276       O  0.52712567  0.98785706  0.31605699    -0.72800
O1277       O  0.52833406  0.93257726  0.25832821    -0.72900
O1278       O  0.53284717  0.53469168  0.24087104    -0.72900
O1279       O  0.00650201  0.53176146  0.26605442    -0.72800
O1280       O  0.98074763  0.92302801  0.26315509    -0.72800
O1281       O  0.00118048  0.98224074  0.30324961    -0.72800
O1282       O  0.98110059  0.48385200  0.21880360    -0.72900
Ni1283     Ni  0.53215252  0.48045784  0.23494394     1.25400
Ni1284     Ni  0.97729741  0.97716141  0.26359094     1.25400
C1285       C  0.00227858  0.48740216  0.18432389     0.89400
C1286       C  0.03758477  0.98240430  0.29601188     0.90500
C1287       C  0.01088185  0.90284734  0.24273040     0.89400
C1288       C  0.03439909  0.54893624  0.24529851     0.89500
O1289       O  0.69489174  0.51933388  0.51506669    -0.72800
O1290       O  0.79816331  0.54449330  0.48051937    -0.72800
O1291       O  0.74511927  0.52730363  0.44386298    -0.72900
O1292       O  0.74034862  0.52403949  0.05168550    -0.72900
O1293       O  0.75263518  0.95584337  0.06283858    -0.72800
O1294       O  0.73625454  0.99135186  0.46602458    -0.72800
O1295       O  0.80086424  0.96044839  0.99004525    -0.72800
O1296       O  0.69313201  0.95367216  0.03277383    -0.72900
Ni1297     Ni  0.74566638  0.53383531  0.49787083     1.25400
Ni1298     Ni  0.74736508  0.95474851  0.01112233     1.25400
C1299       C  0.67157349  0.98394661  0.04490509     0.89400
C1300       C  0.79304247  0.04097013  0.50824551     0.89300
C1301       C  0.72622984  0.02142479  0.45380358     0.89400
C1302       C  0.74987728  0.98641207  0.08541307     0.89500
O1303       O  0.55648858  0.75908915  0.45767655    -0.72800
O1304       O  0.95120303  0.74543160  0.45412746    -0.72800
O1305       O  0.50388717  0.81516548  0.45655648    -0.72900
O1306       O  0.50042387  0.70957259  0.46927663    -0.72900
O1307       O  0.00176785  0.72366140  0.03267787    -0.72800
O1308       O  0.01099565  0.81818222  0.99036650    -0.72800
O1309       O  0.95224664  0.77321325  0.01647067    -0.72800
O1310       O  0.56158313  0.76154720  0.00692627    -0.72900
Ni1311     Ni  0.50253728  0.76171908  0.46042514     1.25400
Ni1312     Ni  0.00631957  0.77201780  0.01353253     1.25400
C1313       C  0.58635555  0.74583748  0.97549569     0.89400
C1314       C  0.94001085  0.75881880  0.98882450     0.89300
C1315       C  0.01909604  0.81882433  0.95353749     0.89400
C1316       C  0.00656182  0.69326582  0.00964936     0.89500
O1317       O  0.96984762  0.72170721  0.22450391    -0.72800
O1318       O  0.55046292  0.73539354  0.27847719    -0.72800
O1319       O  0.50743789  0.67949063  0.26316682    -0.72900
O1320       O  0.50565707  0.78824762  0.26144192    -0.72900
O1321       O  0.97369252  0.78594966  0.30166653    -0.72800
O1322       O  0.98285871  0.67773118  0.30343317    -0.72800
O1323       O  0.51540126  0.74370732  0.34101742    -0.72800
O1324       O  0.93390672  0.72692622  0.28688928    -0.72900
Ni1325     Ni  0.50806914  0.73356599  0.26003801     1.25400
Ni1326     Ni  0.97675359  0.73216172  0.30521757     1.25400
C1327       C  0.93722984  0.72399378  0.25069902     0.89400
C1328       C  0.54791735  0.74044780  0.31451562     0.89300
C1329       C  0.00236071  0.65662757  0.27253731     0.89400
C1330       C  0.99128489  0.80054038  0.27053719     0.89500
O1331       O  0.85253324  0.71594238  0.18036595    -0.79200
O1332       O  0.67448819  0.73639947  0.25384192    -0.63900
O1333       O  0.77822561  0.75029439  0.20467107    -1.10500
C1334       C  0.78550839  0.78362663  0.32789827     1.07600
O1335       O  0.66327187  0.76126143  0.31546073    -0.77100
O1336       O  0.71258626  0.81584741  0.28256111    -0.64700
Ni1337     Ni  0.80630756  0.71080023  0.16641957     1.34900
C1338       C  0.74424117  0.82809067  0.26324510     0.86400
O1339       O  0.71526473  0.74286185  0.18148971    -0.77700
O1340       O  0.76347144  0.70188886  0.14699136    -0.88000
C1341       C  0.65327493  0.74324304  0.28859038     0.86000
O1342       O  0.79296169  0.67294103  0.20070818    -0.66200
O1343       O  0.75462756  0.80133281  0.32941511    -0.85400
C1344       C  0.75898076  0.66570701  0.21840597     0.86800
C1345       C  0.73281489  0.72166737  0.15075861     1.08300
H1346       H  0.73964999  0.71962013  0.28534337     0.40200
O1347       O  0.73976126  0.74416927  0.27639537    -1.08100
O1348       O  0.77656515  0.80933105  0.25511249    -0.64800
Ni1349     Ni  0.79069142  0.75596694  0.25147921     1.26300
O1350       O  0.73073752  0.68917160  0.22421246    -0.65000
O1351       O  0.80300685  0.76057092  0.29891131    -0.77300
C1352       C  0.86353382  0.74036281  0.20173024     0.86200
O1353       O  0.84127761  0.76591374  0.22483518    -0.64500
Ni1354     Ni  0.71088199  0.78013301  0.31858662     1.27400
Ni1355     Ni  0.72615832  0.74323563  0.22925036     1.26100
H1356       H  0.78052264  0.77345971  0.19274698     0.40700
O1357       O  0.75277351  0.69791046  0.01476855    -0.72800
O1358       O  0.76311250  0.75529112  0.42841906    -0.72800
O1359       O  0.81960034  0.71781516  0.96424754    -0.72900
O1360       O  0.71084666  0.72631579  0.97141392    -0.72900
O1361       O  0.69151266  0.79342554  0.51391537    -0.72800
O1362       O  0.80021530  0.77786083  0.50493717    -0.72800
O1363       O  0.75987448  0.81071939  0.46345458    -0.72800
O1364       O  0.74660516  0.75438150  0.04865315    -0.72900
Ni1365     Ni  0.76553015  0.71995084  0.96687119     1.25400
Ni1366     Ni  0.74561460  0.78754719  0.51070405     1.25400
C1367       C  0.74525583  0.71864991  0.04714544     0.89400
C1368       C  0.76710567  0.79070087  0.43068800     0.89300
C1369       C  0.81964537  0.74809069  0.48498496     0.89400
C1370       C  0.68991025  0.75584059  0.98996469     0.89500
O1371       O  0.77630024  0.99209132  0.30941469    -0.72800
O1372       O  0.78325669  0.47743246  0.18469570    -0.72800
O1373       O  0.79358210  0.53733258  0.23204650    -0.72900
O1374       O  0.76073171  0.94129474  0.25613178    -0.72900
O1375       O  0.69873407  0.95928042  0.28118570    -0.72800
O1376       O  0.73191152  0.55576986  0.24582444    -0.72800
O1377       O  0.72200850  0.49675805  0.19787501    -0.72800
O1378       O  0.71481480  0.01186762  0.33338201    -0.72900
Ni1379     Ni  0.77603923  0.99127610  0.25526712     1.25400
Ni1380     Ni  0.70993754  0.01152435  0.28130971     1.25400
C1381       C  0.74650893  0.00208181  0.33902418     0.89400
C1382       C  0.75428811  0.48435524  0.17293023     0.89300
C1383       C  0.76728080  0.56301354  0.23593756     0.89400
C1384       C  0.72572394  0.93332391  0.26863308     0.89500
C1385       C  0.75064928  0.62853594  0.23138598    -0.14800
C1386       C  0.77783988  0.60125564  0.22745007    -0.30000
H1387       H  0.72060383  0.62309003  0.24334244     0.14200
H1388       H  0.80796464  0.60651152  0.21594396     0.14800
C1389       C  0.74537741  0.86666034  0.25284467    -0.14800
C1390       C  0.71726059  0.89343708  0.27004482    -0.30000
H1391       H  0.77281932  0.87446325  0.23451168     0.14200
H1392       H  0.68963351  0.88627033  0.28849723     0.14800
C1393       C  0.71919813  0.72253510  0.11696788    -0.14800
C1394       C  0.73762829  0.70160272  0.08345008    -0.30000
H1395       H  0.70092294  0.74695357  0.11679498     0.14200
H1396       H  0.75457318  0.67610131  0.08313472     0.14800
C1397       C  0.77810993  0.80817596  0.39454298    -0.14800
C1398       C  0.79898648  0.78712465  0.36199070    -0.30000
H1399       H  0.76033495  0.83247991  0.39314615     0.14200
H1400       H  0.81803395  0.76409635  0.36406235     0.14800
C1401       C  0.58398324  0.74397601  0.32370916    -0.14800
C1402       C  0.61547625  0.72881866  0.29612684    -0.30000
H1403       H  0.58545995  0.76378535  0.34775164     0.14200
H1404       H  0.61244931  0.70851940  0.27302949     0.14800
C1405       C  0.90230878  0.72532780  0.24015028    -0.14800
C1406       C  0.90123757  0.73445991  0.20567170    -0.30000
H1407       H  0.87572696  0.72241944  0.26308457     0.14200
H1408       H  0.92689562  0.73720852  0.18168967     0.14800
C1409       C  0.86287919  0.74239577  0.47747032    -0.14800
C1410       C  0.88437689  0.76493684  0.49403670    -0.30000
H1411       H  0.89460778  0.71874772  0.95192711     0.14200
H1412       H  0.86926977  0.78769428  0.51578718     0.14800
C1413       C  0.62893961  0.74107229  0.97150681    -0.14800
C1414       C  0.64721778  0.76031569  0.99439238    -0.30000
H1415       H  0.62739932  0.74043531  0.45610394     0.14200
H1416       H  0.63035232  0.78156853  0.01698313     0.14800
C1417       C  0.72492005  0.02182961  0.41235034    -0.14800
C1418       C  0.74889042  0.00109475  0.38008946    -0.30000
H1419       H  0.70390397  0.04160395  0.40814515     0.14200
H1420       H  0.71979996  0.53668325  0.38010667     0.14800
C1421       C  0.74243428  0.49973986  0.11056811    -0.14800
C1422       C  0.75884591  0.47707178  0.12986700    -0.30000
H1423       H  0.72535531  0.52452004  0.12720915     0.14200
H1424       H  0.71323461  0.02597421  0.15630039     0.14800
C1425       C  0.01281265  0.86096751  0.24305064    -0.14800
C1426       C  0.98851533  0.84243148  0.27031577    -0.30000
H1427       H  0.52717929  0.85761642  0.24214063     0.14200
H1428       H  0.96657142  0.85854617  0.29404209     0.14800
C1429       C  0.03306682  0.59121921  0.24763411    -0.14800
C1430       C  0.00505147  0.61465271  0.27326894    -0.30000
H1431       H  0.05565613  0.60348647  0.22625561     0.14200
H1432       H  0.46775695  0.61399735  0.32152928     0.14800
C1433       C  0.47468313  0.90640402  0.50831824    -0.14800
C1434       C  0.49827284  0.87983358  0.48246197    -0.30000
H1435       H  0.47547599  0.87649388  0.97956418     0.14200
H1436       H  0.03975631  0.86083294  0.41751995     0.14800
C1437       C  0.01756559  0.62474326  0.00529487    -0.14800
C1438       C  0.00029307  0.65704810  0.02594983    -0.30000
H1439       H  0.03032606  0.62580624  0.46478606     0.14200
H1440       H  0.51095720  0.62457297  0.99739396     0.14800
C1441       C  0.86432409  0.52801166  0.45883408    -0.14800
C1442       C  0.89270102  0.50186775  0.44152141    -0.30000
H1443       H  0.87856444  0.48606789  0.94842534     0.14200
H1444       H  0.85568622  0.00058960  0.46630395     0.14800
C1445       C  0.61464533  0.95631714  0.03950210    -0.14800
C1446       C  0.63017731  0.98260949  0.05741164    -0.30000
H1447       H  0.63183160  0.93126283  0.02355297     0.14200
H1448       H  0.63904006  0.44963009  0.52054296     0.14800
C1449       C  0.05259326  0.98816504  0.32877027    -0.14800
C1450       C  0.03220423  0.01178329  0.35913675    -0.30000
H1451       H  0.57912981  0.45240104  0.33856522     0.14200
H1452       H  0.00970263  0.03047222  0.35583786     0.14800
C1453       C  0.44056796  0.53768159  0.18818973    -0.14800
C1454       C  0.43927529  0.50194911  0.19643511    -0.30000
H1455       H  0.03587764  0.52809285  0.13000640     0.14200
H1456       H  0.43374172  0.48008585  0.17619765     0.14800
O1457       O  0.57570623  0.94782432  0.99948592    -0.79200
O1458       O  0.93501120  0.00445041  0.95871057    -0.63900
O1459       O  0.51785426  0.51355815  0.01511601    -1.10500
C1460       C  0.45750228  0.53408300  0.61695285     1.07600
O1461       O  0.93784725  0.53649888  0.46275854    -0.77100
O1462       O  0.96198167  0.57920005  0.51520187    -0.64700
Ni1463     Ni  0.57204139  0.97151512  0.95529647     1.34900
C1464       C  0.99706240  0.58512206  0.50062020     0.86400
O1465       O  0.00698746  0.00775272  0.91257512    -0.77700
O1466       O  0.56969645  0.99438534  0.91025686    -0.88000
C1467       C  0.90400553  0.52743170  0.99797257     0.86000
O1468       O  0.54662146  0.92889998  0.94176712    -0.66200
O1469       O  0.93391065  0.53013602  0.56849709    -0.85400
C1470       C  0.51197997  0.92138764  0.95564945     0.86800
C1471       C  0.04142314  0.00310056  0.89034560     1.08300
H1472       H  0.94281464  0.97919169  0.53553266     0.40200
O1473       O  0.95328827  0.00325025  0.53029471    -1.08100
O1474       O  0.50891818  0.58201094  0.53555466    -0.64800
Ni1475     Ni  0.51360638  0.52877950  0.54006637     1.26300
O1476       O  0.98476675  0.95011787  0.95928110    -0.65000
O1477       O  0.49115874  0.53642336  0.59451347    -0.77300
C1478       C  0.55004332  0.01795935  0.57819364     0.86200
O1479       O  0.56168621  0.53443970  0.54784069    -0.64500
Ni1480     Ni  0.93587681  0.53372911  0.51561543     1.27400
Ni1481     Ni  0.98387367  0.00425053  0.96632546     1.26100
H1482       H  0.52567438  0.53610535  0.00300323     0.40700
O1483       O  0.51975514  0.51244283  0.71181942    -0.72800
O1484       O  0.54335523  0.00137360  0.77043103    -0.72800
O1485       O  0.50906174  0.94854187  0.73694994    -0.72900
O1486       O  0.51644141  0.56165967  0.77392375    -0.72900
O1487       O  0.94582327  0.53073866  0.75705161    -0.72800
O1488       O  0.99145999  0.92147606  0.75961698    -0.72800
O1489       O  0.01243125  0.97977126  0.80044762    -0.72800
O1490       O  0.92714793  0.48216455  0.70445531    -0.72900
Ni1491     Ni  0.52471643  0.50769203  0.76199879     1.25400
Ni1492     Ni  0.98361081  0.97582062  0.76521276     1.25400
C1493       C  0.95099619  0.48710233  0.67171099     0.89400
C1494       C  0.04872689  0.98252855  0.78975867     0.90500
C1495       C  0.02111317  0.90392980  0.73467776     0.89400
C1496       C  0.97530947  0.54863294  0.74084125     0.89500
O1497       O  0.68868546  0.51050837  0.01447615    -0.72800
O1498       O  0.79354651  0.52993061  0.98176522    -0.72800
O1499       O  0.74131952  0.51628147  0.94362834    -0.72900
O1500       O  0.74683159  0.53567753  0.55128045    -0.72900
O1501       O  0.73335369  0.99254712  0.57500066    -0.72800
O1502       O  0.74233644  0.95777501  0.95980996    -0.72800
O1503       O  0.78612923  0.00611822  0.50684687    -0.72800
O1504       O  0.68291978  0.97828951  0.53477220    -0.72900
Ni1505     Ni  0.74045790  0.52228914  0.99794971     1.25400
Ni1506     Ni  0.73545185  0.98989946  0.52017604     1.25400
C1507       C  0.65629992  0.00449244  0.54642965     0.89400
C1508       C  0.81403047  0.99303539  0.98774998     0.89300
C1509       C  0.73681785  0.98897139  0.94698491     0.89400
C1510       C  0.72200226  0.02283690  0.59855720     0.89500
O1511       O  0.57480494  0.73299324  0.94677893    -0.72800
O1512       O  0.96437401  0.74296153  0.95715857    -0.72800
O1513       O  0.52788565  0.78564878  0.93037024    -0.72900
O1514       O  0.51406089  0.68912932  0.96925793    -0.72900
O1515       O  0.98959794  0.71943597  0.52604510    -0.72800
O1516       O  0.00046750  0.81668354  0.49038069    -0.72800
O1517       O  0.94075009  0.77247149  0.51451311    -0.72800
O1518       O  0.54355121  0.77465174  0.52132921    -0.72900
Ni1519     Ni  0.52115185  0.73648042  0.94779431     1.25400
Ni1520     Ni  0.99490912  0.76908084  0.51045162     1.25400
C1521       C  0.56834367  0.76527327  0.48754067     0.89400
C1522       C  0.92755684  0.76012297  0.48689913     0.89300
C1523       C  0.00794495  0.81963916  0.45397275     0.89400
C1524       C  0.99410925  0.69065412  0.50097447     0.89500
O1525       O  0.96801799  0.73329529  0.70132266    -0.72800
O1526       O  0.54736588  0.76118560  0.77611144    -0.72800
O1527       O  0.51471821  0.70178257  0.75150517    -0.72900
O1528       O  0.49959695  0.80933789  0.75675009    -0.72900
O1529       O  0.99094188  0.78009097  0.77970532    -0.72800
O1530       O  0.98505057  0.67185747  0.76617468    -0.72800
O1531       O  0.50724770  0.76178043  0.83640632    -0.72800
O1532       O  0.93979327  0.73313388  0.76517023    -0.72900
Ni1533     Ni  0.50846093  0.75543352  0.75211226     1.25400
Ni1534     Ni  0.98722833  0.72610490  0.77533915     1.25400
C1535       C  0.93800061  0.73609907  0.73092959     0.89400
C1536       C  0.54105591  0.76209042  0.81287262     0.89300
C1537       C  0.99816327  0.65410464  0.73183592     0.89400
C1538       C  0.00595116  0.79793421  0.75022059     0.89500
O1539       O  0.84045709  0.71755559  0.67234728    -0.79200
O1540       O  0.66267996  0.73271444  0.76136745    -0.63900
O1541       O  0.76434150  0.74996413  0.70442810    -1.10500
C1542       C  0.78297413  0.77776656  0.82328967     1.07600
O1543       O  0.65522575  0.76473190  0.81947631    -0.77100
O1544       O  0.70590410  0.81586764  0.78579402    -0.64700
Ni1545     Ni  0.79106321  0.71092598  0.66450326     1.34900
C1546       C  0.73705393  0.82775878  0.76533225     0.86400
O1547       O  0.69812970  0.74117518  0.68743363    -0.77700
O1548       O  0.74507162  0.70020554  0.65086699    -0.88000
C1549       C  0.64269774  0.74478556  0.79563575     0.86000
O1550       O  0.78268096  0.67380558  0.69984927    -0.66200
O1551       O  0.75142765  0.79641879  0.82898354    -0.85400
C1552       C  0.74994390  0.66529649  0.71990045     0.86800
C1553       C  0.71494289  0.72122590  0.65567983     1.08300
H1554       H  0.73154774  0.71800373  0.78632822     0.40200
O1555       O  0.73095484  0.74243610  0.77720250    -1.08100
O1556       O  0.76877366  0.80789266  0.75464712    -0.64800
Ni1557     Ni  0.78113666  0.75397856  0.74858397     1.26300
O1558       O  0.72016528  0.68704909  0.72666578    -0.65000
O1559       O  0.79789602  0.75581071  0.79283278    -0.77300
C1560       C  0.85253737  0.74093894  0.69388407     0.86200
O1561       O  0.83047323  0.76467412  0.71941892    -0.64500
Ni1562     Ni  0.70507088  0.77898297  0.82028496     1.27400
Ni1563     Ni  0.71325277  0.74113825  0.73279595     1.26100
H1564       H  0.76506211  0.77354574  0.69337189     0.40700
O1565       O  0.73386329  0.70553306  0.51972642    -0.72800
O1566       O  0.77804921  0.74579919  0.92182654    -0.72800
O1567       O  0.80235559  0.72290862  0.46991200    -0.72900
O1568       O  0.69375290  0.73908746  0.47783818    -0.72900
O1569       O  0.70521736  0.78212186  0.00596817    -0.72800
O1570       O  0.81399927  0.77369492  0.99865517    -0.72800
O1571       O  0.77172448  0.80214641  0.95602615    -0.72800
O1572       O  0.73139398  0.76056261  0.55519966    -0.72900
Ni1573     Ni  0.74827246  0.72880016  0.47277057     1.25400
Ni1574     Ni  0.75923045  0.77999482  0.00356321     1.25400
C1575       C  0.72777016  0.72502148  0.55256648     0.89400
C1576       C  0.77876417  0.78164459  0.92364987     0.89300
C1577       C  0.83504752  0.74438893  0.97966736     0.89400
C1578       C  0.67440512  0.76896082  0.49777059     0.89500
O1579       O  0.75184415  0.99792051  0.82080852    -0.72800
O1580       O  0.78949122  0.48261658  0.68231782    -0.72800
O1581       O  0.79450231  0.54050866  0.73446880    -0.72900
O1582       O  0.74754436  0.94380293  0.76448829    -0.72900
O1583       O  0.68439831  0.95621527  0.78121850    -0.72800
O1584       O  0.73199206  0.55508321  0.74819482    -0.72800
O1585       O  0.72755210  0.49901523  0.69502643    -0.72800
O1586       O  0.68912797  0.01199228  0.83687418    -0.72900
Ni1587     Ni  0.75762263  0.99552135  0.76535890     1.25400
Ni1588     Ni  0.69024629  0.00949086  0.78249182     1.25400
C1589       C  0.71929707  0.00592400  0.84708605     0.89400
C1590       C  0.76068430  0.48949060  0.67027832     0.89300
C1591       C  0.76658714  0.56465571  0.73910697     0.89400
C1592       C  0.71352811  0.93269556  0.77225361     0.89500
C1593       C  0.74489354  0.62837384  0.73420157    -0.14800
C1594       C  0.77414379  0.60369535  0.73142404    -0.30000
H1595       H  0.71552531  0.62068245  0.74594351     0.14200
H1596       H  0.80360606  0.61125849  0.72024352     0.14800
C1597       C  0.73811158  0.86701958  0.75680823    -0.14800
C1598       C  0.70809896  0.89216574  0.77221035    -0.30000
H1599       H  0.76581524  0.87641779  0.74094802     0.14200
H1600       H  0.68006701  0.88315938  0.78755696     0.14800
C1601       C  0.70142191  0.72544818  0.62226969    -0.14800
C1602       C  0.71943403  0.70609240  0.58779441    -0.30000
H1603       H  0.68405183  0.75097101  0.62356200     0.14200
H1604       H  0.73542802  0.67960225  0.58602041     0.14800
C1605       C  0.78432253  0.79936007  0.88803358    -0.14800
C1606       C  0.80098463  0.77881478  0.85402269    -0.30000
H1607       H  0.76599365  0.82427572  0.88972958     0.14200
H1608       H  0.82072449  0.75506107  0.85263351     0.14800
C1609       C  0.57450751  0.76120226  0.82653699    -0.14800
C1610       C  0.60271302  0.73587260  0.80641877    -0.30000
H1611       H  0.57959899  0.78556192  0.84415403     0.14200
H1612       H  0.59609220  0.71255488  0.78837949     0.14800
C1613       C  0.90036439  0.74346421  0.72667607    -0.14800
C1614       C  0.89270425  0.73773399  0.69275495    -0.30000
H1615       H  0.87727632  0.75179447  0.75348352     0.14200
H1616       H  0.91467005  0.72626674  0.66621020     0.14800
C1617       C  0.87804544  0.74069811  0.97386484    -0.14800
C1618       C  0.89706091  0.76208527  0.99440715    -0.30000
H1619       H  0.87754171  0.71840992  0.45722417     0.14200
H1620       H  0.88011059  0.78266330  0.01769840     0.14800
C1621       C  0.61128526  0.75909019  0.48162096    -0.14800
C1622       C  0.63141405  0.77571209  0.50416745    -0.30000
H1623       H  0.64624840  0.72133889  0.94755950     0.14200
H1624       H  0.61591608  0.79631727  0.52818708     0.14800
C1625       C  0.73841338  0.98779115  0.90469833    -0.14800
C1626       C  0.71627246  0.00927014  0.88989161    -0.30000
H1627       H  0.75792524  0.96618173  0.88478537     0.14200
H1628       H  0.71991382  0.52875775  0.87924559     0.14800
C1629       C  0.75073936  0.51013581  0.60914339    -0.14800
C1630       C  0.76619505  0.48530608  0.62713223    -0.30000
H1631       H  0.73404768  0.53468740  0.62677260     0.14200
H1632       H  0.75281472  0.97573345  0.63883205     0.14800
C1633       C  0.02526650  0.86174032  0.72962067    -0.14800
C1634       C  0.00488163  0.84005554  0.75621194    -0.30000
H1635       H  0.50925584  0.87538951  0.73459270     0.14200
H1636       H  0.98598225  0.85374992  0.78364135     0.14800
C1637       C  0.97419012  0.59056586  0.74932216    -0.14800
C1638       C  0.99762285  0.61221917  0.72494924    -0.30000
H1639       H  0.95299663  0.60391226  0.77551269     0.14200
H1640       H  0.52913312  0.63021131  0.75450745     0.14800
C1641       C  0.50239889  0.88176563  0.95836521    -0.14800
C1642       C  0.52744338  0.85258626  0.94059924    -0.30000
H1643       H  0.44990848  0.89845940  0.53069441     0.14200
H1644       H  0.05191554  0.85861636  0.91590151     0.14800
C1645       C  0.00724325  0.62290823  0.49124785    -0.14800
C1646       C  0.98828558  0.65334253  0.51403641    -0.30000
H1647       H  0.03980518  0.62546565  0.97768365     0.14200
H1648       H  0.50048160  0.63877860  0.48216864     0.14800
C1649       C  0.85831836  0.50874896  0.96543953    -0.14800
C1650       C  0.86859869  0.53449317  0.98896130    -0.30000
H1651       H  0.87046397  0.55619642  0.46828197     0.14200
H1652       H  0.85246584  0.05466638  0.98709633     0.14800
C1653       C  0.58904671  0.02113936  0.57944780    -0.14800
C1654       C  0.61652260  0.99498498  0.55915295    -0.30000
H1655       H  0.59632164  0.04786976  0.59142181     0.14200
H1656       H  0.62839971  0.44403370  0.02681407     0.14800
C1657       C  0.06666231  0.98844635  0.82039018    -0.14800
C1658       C  0.04749232  0.01254760  0.85101728    -0.30000
H1659       H  0.46575632  0.49875718  0.90262917     0.14200
H1660       H  0.02628287  0.03275730  0.84757620     0.14800
C1661       C  0.45416556  0.52733653  0.65736093    -0.14800
C1662       C  0.48632991  0.52033144  0.66692561    -0.30000
H1663       H  0.97232215  0.54594023  0.63790681     0.14200
H1664       H  0.51427654  0.52064951  0.64534448     0.14800
loop_ 
_geom_bond_atom_site_label_1 
_geom_bond_atom_site_label_2 
_geom_bond_distance 
_geom_bond_site_symmetry_2 
_ccdc_geom_bond_type 
O1           Ni7   1.910       .  S
O1          C230   1.266       .  A
O2          Ni25   1.881       .  S
O2          C427   1.268       .  A
O3           H26   0.966       .  S
O3         Ni423   1.907   1_545  S
O3        Ni1273   1.879   1_455  S
O3         Ni227   1.906       .  S
C4           O21   1.275   1_545  A
C4          O845   1.278       .  A
C4          C205   1.466   1_545  S
O5          Ni24   1.945       .  S
O5          C219   1.278   1_554  A
O6          Ni24   1.888       .  S
O6            C8   1.266       .  A
Ni7          O10   1.923       .  S
Ni7          O12   1.889       .  S
Ni7         O419   1.892       .  S
C8          O850   1.280       .  A
C8          C189   1.483       .  S
O9          Ni25   1.904       .  S
O9           C15   1.280       .  A
O10         C847   1.277       .  A
C11         O418   1.269       .  A
C11         O213   1.273       .  A
C11         C194   1.457       .  S
O12          C14   1.263       .  A
O13         Ni24   1.957       .  S
O13         C836   1.280       .  A
C14         O852   1.263   1_455  A
C14         C185   1.447   1_455  S
C15         O842   1.280       .  A
C15         C202   1.451       .  S
H16          O17   0.966       .  S
O17        Ni233   1.887       .  S
O17       Ni1267   1.879       .  S
O17        Ni440   1.890       .  S
O18         Ni19   1.917       .  S
O18         C840   1.265   1_455  A
Ni19         O23   1.879       .  S
Ni19         O21   1.887   1_445  S
Ni19        O211   1.904   1_554  S
Ni19       O1265   1.876   1_455  S
O20         Ni25   1.933       .  S
O20         C846   1.269       .  A
C22         O209   1.268       .  A
C22         O439   1.268       .  A
C22         C197   1.451       .  S
O23         C438   1.261   1_545  A
Ni24        O433   1.904   1_545  S
Ni25       O1251   1.862       .  S
Ni25        O225   1.910       .  S
O27         Ni35   1.895       .  S
O27         C869   1.277   1_455  A
O28        Ni451   1.896       .  S
O28         C870   1.272       .  A
O29        Ni451   1.947       .  S
O29         C871   1.287       .  A
O30         Ni35   1.957   1_545  S
O30         C872   1.289       .  A
O31        Ni452   1.937   1_545  S
O31          C40   1.285       .  A
O32         Ni36   1.952       .  S
O32          C39   1.288       .  A
O33         Ni36   1.890       .  S
O33          C38   1.279       .  A
O34        Ni452   1.915       .  S
O34          C37   1.279       .  A
Ni35        O444   1.904       .  S
Ni35        O445   1.943       .  S
Ni35      Ni1284   2.390   1_455  S
Ni36        O447   1.955       .  S
Ni36        O450   1.904       .  S
Ni36      Ni1283   2.390       .  S
C37         O859   1.280       .  A
C37        C1038   1.463       .  S
C38         O860   1.277       .  A
C38         C201   1.453       .  S
C39         O861   1.283       .  A
C39         C177   1.501       .  S
C40         O862   1.284       .  A
C40         C181   1.496       .  S
O41         Ni49   1.892       .  S
O41         C675   1.275       .  A
O42         Ni49   1.900       .  S
O42         C468   1.280       .  A
O43         Ni49   1.942       .  S
O43         C469   1.285       .  A
O44        Ni257   1.948   1_554  S
O44         C470   1.287       .  A
O45         Ni50   1.952   1_554  S
O45          C54   1.286       .  A
O46        Ni258   1.946       .  S
O46          C53   1.287       .  A
O47         Ni50   1.901       .  S
O47         C260   1.277       .  A
O48         Ni50   1.907       .  S
O48          C51   1.281       .  A
Ni49        O252   1.941       .  S
Ni49       Ni674   2.388   1_545  S
Ni50        O254   1.941       .  S
Ni50       Ni673   2.389       .  S
C51         O665   1.271       .  A
C51         C198   1.442       .  S
C52         O458   1.279       .  A
C52         O255   1.276       .  A
C52         C609   1.453       .  S
C53         O459   1.287       .  A
C53         C169   1.513       .  S
C54         O460   1.291       .  A
C54         C589   1.518       .  S
O55         Ni63   1.959       .  S
O55         C273   1.290       .  A
O56        Ni895   1.973       .  S
O56         C274   1.290       .  A
O57         Ni63   1.905       .  S
O57        C1107   1.276       .  A
O58         Ni63   1.906   1_655  S
O58        C1108   1.279       .  A
O59         Ni64   1.932       .  S
O59          C68   1.282       .  A
O60         Ni64   1.922       .  S
O60          C67   1.281   1_554  A
O61         Ni64   1.966       .  S
O61          C66   1.292       .  A
O62        Ni896   1.971   1_455  S
O62          C65   1.291       .  A
Ni63        O888   1.970   1_455  S
Ni63      Ni1104   2.383   1_455  S
Ni64        O894   1.970       .  S
Ni64      Ni1103   2.380   1_554  S
C65         O263   1.289   1_554  A
C65         C165   1.529   1_554  S
C66         O264   1.289   1_554  A
C66         C370   1.532       .  S
C67        O1097   1.281       .  A
C67        C1226   1.474       .  S
C68        O1098   1.279   1_554  A
C68         C190   1.472       .  S
O69        Ni909   1.897       .  S
O69          C79   1.274       .  A
O70         Ni77   1.899       .  S
O70          C80   1.279       .  A
O71         Ni77   1.939       .  S
O71         C913   1.285       .  A
O72         Ni77   1.952       .  S
O72         C914   1.287       .  A
O73         Ni78   1.942       .  S
O73          C82   1.286       .  A
O74         Ni78   1.942       .  S
O74          C81   1.286       .  A
O75        Ni910   1.896   1_455  S
O75          C80   1.274       .  A
O76         Ni78   1.899       .  S
O76          C79   1.278       .  A
Ni77        O901   1.915   1_455  S
Ni77       Ni910   2.389   1_455  S
Ni78        O907   1.914       .  S
Ni78       Ni909   2.392       .  S
C79         C157   1.442       .  S
C80         C153   1.442       .  S
C81         O903   1.283       .  A
C81         C182   1.493       .  S
C82         O904   1.285       .  A
C82         C178   1.502       .  S
O83         Ni89   1.921       .  S
O83         C104   1.269       .  A
O84        Ni107   1.847       .  S
O84          C93   1.253       .  A
O85         H108   0.965       .  S
O85         Ni89   1.923       .  S
O85        Ni107   1.891       .  S
O85        Ni101   1.895       .  S
C86         O103   1.268       .  A
C86          O95   1.279       .  A
C86         C150   1.463       .  S
O87        Ni106   1.950       .  S
O87          C93   1.272       .  A
O88        Ni106   1.914       .  S
O88          C90   1.269       .  A
Ni89         O92   1.924       .  S
Ni89         O94   1.901       .  S
C90         O100   1.265       .  A
C90         C141   1.457       .  S
O91        Ni107   1.887       .  S
O91          C97   1.263       .  A
O92          C97   1.276       .  A
C93         C154   1.468       .  S
O94          C96   1.265       .  A
O95        Ni106   1.944       .  S
C96         O102   1.263       .  A
C96         C137   1.461       .  S
C97         C145   1.459       .  S
H98          O99   0.966       .  S
O99        Ni107   1.886       .  S
O99        Ni101   1.900       .  S
O99        Ni106   1.928       .  S
O100       Ni101   1.910       .  S
Ni101       O105   1.882       .  S
Ni101       O103   1.885       .  S
O102       Ni107   1.904       .  S
C104        O105   1.259       .  A
C104        C158   1.446       .  S
O109       Ni117   1.901   1_554  S
O109        C119   1.274       .  A
O110       Ni325   1.896       .  S
O110        C120   1.280       .  A
O111       Ni117   1.962       .  S
O111        C329   1.291       .  A
O112       Ni117   1.974       .  S
O112        C122   1.291   1_556  A
O113       Ni118   1.955       .  S
O113        C330   1.289       .  A
O114       Ni118   1.967       .  S
O114        C121   1.289       .  A
O115       Ni118   1.914       .  S
O115        C120   1.277       .  A
O116       Ni326   1.905       .  S
O116        C119   1.282       .  A
Ni117       O318   1.893       .  S
Ni117      Ni326   2.383   1_556  S
Ni118       O324   1.896       .  S
Ni118      Ni325   2.384       .  S
C119        C146   1.457       .  S
C120        C149   1.460       .  S
C121        O319   1.292       .  A
C121        C161   1.533       .  S
C122        O321   1.288       .  A
C122        C166   1.529       .  S
O123       Ni131   1.953       .  S
O123        C133   1.287       .  A
O124       Ni547   1.932       .  S
O124        C134   1.283       .  A
O125       Ni547   1.916   1_545  S
O125        C135   1.279       .  A
O126       Ni131   1.896       .  S
O126        C136   1.281       .  A
O127       Ni132   1.912       .  S
O127        C136   1.277       .  A
O128       Ni548   1.895       .  S
O128        C135   1.279       .  A
O129       Ni548   1.970       .  S
O129        C134   1.291   1_545  A
O130       Ni132   1.950       .  S
O130        C133   1.288       .  A
Ni131       O540   1.950       .  S
Ni131       O541   1.908       .  S
Ni131      Ni132   2.385       .  S
Ni132       O544   1.889       .  S
Ni132       O545   1.958       .  S
C133        C170   1.513       .  S
C134        C174   1.513       .  S
C135        C138   1.468       .  S
C136        C142   1.469       .  S
C137        C138   1.340       .  D
C137        H139   1.088       .  S
C138        H140   1.087       .  S
C141        C142   1.338       .  D
C141        H143   1.088       .  S
C142        H144   1.086       .  S
C145        C146   1.332       .  D
C145        H147   1.088       .  S
C146        H148   1.087       .  S
C149        C150   1.339       .  D
C149        H151   1.086       .  S
C150        H152   1.089       .  S
C153        C154   1.346       .  D
C153        H155   1.087       .  S
C154        H156   1.087       .  S
C157        C158   1.330       .  D
C157        H159   1.087       .  S
C158        H160   1.089       .  S
C161        C162   1.370       .  D
C161        H371   1.086       .  S
C162        C274   1.533       .  S
C162        H164   1.086       .  S
H163        C369   1.086       .  S
C165        C166   1.366   1_556  D
C165        H375   1.086       .  S
C166        H168   1.086       .  S
H167        C373   1.086       .  S
C169        C170   1.360       .  D
C169        H171   1.086       .  S
C170        H588   1.086       .  S
H172        C586   1.086       .  S
C173        C470   1.515       .  S
C173        C174   1.358   1_545  D
C173        H175   1.086       .  S
C174        H592   1.086       .  S
H176        C590   1.086       .  S
C177        C178   1.355       .  D
C177       H1011   1.087       .  S
C178        H180   1.086       .  S
H179       C1009   1.086       .  S
C181        C182   1.352       .  D
C181        H183   1.086       .  S
C182       H1016   1.086       .  S
H184       C1014   1.086       .  S
C185        C186   1.333   1_655  D
C185        H395   1.087       .  S
C186       C1107   1.456       .  S
C186       H1020   1.087       .  S
H187        C393   1.087   1_554  S
H188       C1018   1.087       .  S
C189        C190   1.349       .  D
C189        H399   1.086       .  S
C190       H1024   1.088       .  S
H191        C397   1.087       .  S
H192       C1022   1.086       .  S
C193        C468   1.455       .  S
C193        C194   1.337       .  D
C193        H403   1.087       .  S
C194        H612   1.088       .  S
H195        C401   1.087   1_554  S
H196        C610   1.088       .  S
C197        C198   1.331       .  D
C197        H199   1.087       .  S
C198        H824   1.088       .  S
H200        C822   1.088       .  S
C201        C202   1.333       .  D
C201       H1451   1.087       .  S
C202        H204   1.090       .  S
H203       C1449   1.087       .  S
C205        C206   1.341       .  D
C205       H1039   1.087   1_565  S
C206        C869   1.450       .  S
C206        H208   1.088       .  S
H207       C1037   1.086       .  S
O209       Ni215   1.920       .  S
O210       Ni233   1.861       .  S
O210        C635   1.263       .  A
O211        H234   0.966       .  S
O211       Ni631   1.905   1_545  S
O211      Ni1481   1.886   1_455  S
C212        O229   1.273   1_545  A
C212       O1053   1.277       .  A
C212        C413   1.460       .  S
O213       Ni232   1.931       .  S
O214       Ni232   1.912       .  S
O214        C216   1.266       .  A
Ni215       O218   1.914       .  S
Ni215       O220   1.899       .  S
Ni215       O627   1.897       .  S
C216       O1058   1.272       .  A
C216        C397   1.476       .  S
O217       Ni233   1.901   1_556  S
O217        C223   1.278       .  A
O218       C1055   1.276       .  A
C219        O626   1.260   1_545  A
C219        C402   1.457       .  S
O220        C222   1.267   1_455  A
O221       Ni232   1.924       .  S
O221       C1044   1.277       .  A
C222       O1060   1.271       .  A
C222        C393   1.471       .  S
C223       O1050   1.280       .  A
C223        C410   1.470       .  S
H224        O225   0.966       .  S
O225      Ni1475   1.884       .  S
O225       Ni648   1.896       .  S
O226       Ni227   1.922       .  S
O226       C1048   1.267   1_455  A
Ni227       O231   1.889   1_545  S
Ni227       O229   1.877   1_445  S
Ni227      O1473   1.881   1_455  S
O228       Ni233   1.937       .  S
O228       C1054   1.271       .  A
C230        O647   1.263       .  A
C230        C405   1.455       .  S
O231        C646   1.265       .  A
Ni232       O641   1.894       .  S
Ni233      O1459   1.859       .  S
O235       Ni243   1.899       .  S
O235       C1077   1.278   1_455  A
O236       Ni659   1.908       .  S
O236       C1078   1.277       .  A
O237       Ni659   1.935       .  S
O237       C1079   1.284   1_455  A
O238       Ni243   1.956   1_545  S
O238       C1080   1.288       .  A
O239       Ni660   1.931       .  S
O239        C248   1.284       .  A
O240       Ni244   1.942       .  S
O240        C247   1.286       .  A
O241       Ni244   1.896       .  S
O241        C246   1.276       .  A
O242       Ni660   1.914       .  S
O242        C245   1.278       .  A
Ni243       O652   1.912       .  S
Ni243       O653   1.942       .  S
Ni243     Ni1492   2.390   1_455  S
Ni244       O655   1.933       .  S
Ni244       O658   1.913       .  S
Ni244     Ni1491   2.390       .  S
C245       O1067   1.279       .  A
C245       C1246   1.456       .  S
C246       O1068   1.280       .  A
C246        C409   1.456       .  S
C247       O1069   1.283       .  A
C247        C385   1.496       .  S
C248       O1070   1.287       .  A
C248        C389   1.501       .  S
O249       Ni257   1.895   1_554  S
O249        C467   1.281   1_545  A
O250       Ni257   1.912       .  S
O250        C676   1.277       .  A
O251       Ni257   1.960       .  S
O251        C677   1.289   1_545  A
O252        C678   1.286       .  A
O253       Ni258   1.957       .  S
O253        C262   1.287       .  A
O254        C261   1.285       .  A
O255       Ni258   1.899       .  S
O256       Ni258   1.906       .  S
O256        C259   1.277       .  A
Ni257      Ni466   2.387   1_545  S
Ni258      Ni465   2.387       .  S
C259        O457   1.278       .  A
C259        C406   1.454       .  S
C260        O666   1.276       .  A
C260        C817   1.448       .  S
C261        O667   1.288       .  A
C261        C377   1.508       .  S
C262        O668   1.288       .  A
C262        C797   1.514       .  S
O263       Ni271   1.955       .  S
O264      Ni1103   1.966       .  S
O265       Ni271   1.918       .  S
O265        C899   1.280       .  A
O266       Ni271   1.911   1_654  S
O266        C900   1.281       .  A
O267       Ni272   1.928       .  S
O267        C276   1.282       .  A
O268       Ni272   1.921       .  S
O268        C275   1.281       .  A
O269       Ni272   1.959       .  S
O269        C274   1.290       .  A
O270      Ni1104   1.972   1_455  S
O270        C273   1.291       .  A
Ni271      O1096   1.965   1_455  S
Ni271      Ni896   2.383   1_456  S
Ni272      O1102   1.971       .  S
Ni272      Ni895   2.381       .  S
C273        C373   1.533       .  S
C275        O889   1.281       .  A
C275       C1018   1.476       .  S
C276        O890   1.279       .  A
C276        C398   1.474       .  S
O277      Ni1117   1.904       .  S
O277        C287   1.276       .  A
O278       Ni285   1.910       .  S
O278        C288   1.280       .  A
O279       Ni285   1.939       .  S
O279       C1121   1.285       .  A
O280       Ni285   1.938   1_655  S
O280       C1122   1.284       .  A
O281       Ni286   1.935       .  S
O281        C290   1.285       .  A
O282       Ni286   1.943       .  S
O282        C289   1.286       .  A
O283      Ni1118   1.902   1_455  S
O283        C288   1.277       .  A
O284       Ni286   1.895       .  S
O284        C287   1.277       .  A
Ni285      O1109   1.915   1_455  S
Ni285     Ni1118   2.388   1_455  S
Ni286      O1115   1.904       .  S
Ni286     Ni1117   2.392       .  S
C287        C365   1.442       .  S
C288        C361   1.458       .  S
C289       O1111   1.285       .  A
C289        C390   1.503       .  S
C290       O1112   1.285       .  A
C290        C386   1.498       .  S
O291       Ni297   1.914       .  S
O291        C312   1.266       .  A
O292       Ni315   1.858       .  S
O292        C301   1.258       .  A
O293        H316   0.966       .  S
O293       Ni297   1.926       .  S
O293       Ni315   1.895       .  S
O293       Ni309   1.913       .  S
C294        O311   1.268       .  A
C294        O303   1.276       .  A
C294        C358   1.465       .  S
O295       Ni314   1.948       .  S
O295        C301   1.274       .  A
O296       Ni314   1.900       .  S
O296        C298   1.270       .  A
Ni297       O300   1.934       .  S
Ni297       O302   1.889       .  S
C298        O308   1.272       .  A
C298        C349   1.463       .  S
O299       Ni315   1.877       .  S
O299        C305   1.258       .  A
O300        C305   1.269       .  A
C301        C362   1.467       .  S
O302        C304   1.269       .  A
O303       Ni314   1.942       .  S
C304        O310   1.273       .  A
C304        C345   1.451       .  S
C305        C353   1.455       .  S
H306        O307   0.966       .  S
O307       Ni315   1.888       .  S
O307       Ni309   1.896       .  S
O307       Ni314   1.915       .  S
O308       Ni309   1.931       .  S
Ni309       O313   1.883       .  S
Ni309       O311   1.892       .  S
O310       Ni315   1.928       .  S
C312        O313   1.269       .  A
C312        C366   1.458       .  S
O317       Ni325   1.902       .  S
O317        C327   1.274       .  A
O318        C328   1.278       .  A
O319       Ni325   1.965       .  S
O320       Ni325   1.977       .  S
O320        C330   1.292       .  A
O321       Ni326   1.954       .  S
O322       Ni326   1.968       .  S
O322        C329   1.289   1_554  A
O323       Ni326   1.923   1_556  S
O323        C328   1.280       .  A
O324        C327   1.282       .  A
C327        C354   1.456       .  S
C328        C357   1.466       .  S
C329        C369   1.530       .  S
C330        C374   1.533       .  S
O331       Ni339   1.951       .  S
O331        C341   1.287       .  A
O332       Ni755   1.952       .  S
O332        C342   1.288       .  A
O333       Ni755   1.902   1_545  S
O333        C343   1.276       .  A
O334       Ni339   1.904       .  S
O334        C344   1.280       .  A
O335       Ni340   1.908       .  S
O335        C344   1.278       .  A
O336       Ni756   1.890       .  S
O336        C343   1.279       .  A
O337       Ni756   1.951       .  S
O337        C342   1.287   1_545  A
O338       Ni340   1.948       .  S
O338        C341   1.287       .  A
Ni339       O748   1.951       .  S
Ni339       O749   1.910       .  S
Ni339      Ni340   2.386       .  S
Ni340       O752   1.889       .  S
Ni340       O753   1.953       .  S
C341        C378   1.512       .  S
C342        C382   1.513       .  S
C343        C346   1.455       .  S
C344        C350   1.464       .  S
C345        C346   1.337       .  D
C345        H347   1.087       .  S
C346        H348   1.087       .  S
C349        C350   1.340       .  D
C349        H351   1.087       .  S
C350        H352   1.087       .  S
C353        C354   1.334       .  D
C353        H355   1.089       .  S
C354        H356   1.087       .  S
C357        C358   1.342       .  D
C357        H359   1.086       .  S
C358        H360   1.088       .  S
C361        C362   1.347       .  D
C361        H363   1.088       .  S
C362        H364   1.086       .  S
C365        C366   1.331       .  D
C365        H367   1.088       .  S
C366        H368   1.088       .  S
C369        C370   1.370   1_556  D
C370        H372   1.086       .  S
C373        C374   1.369       .  D
C374        H376   1.086       .  S
C377        C378   1.358       .  D
C377        H379   1.086       .  S
C378        H796   1.086       .  S
H380        C794   1.086       .  S
C381        C678   1.512       .  S
C381        C382   1.359   1_545  D
C381        H383   1.086       .  S
C382        H800   1.086       .  S
H384        C798   1.086       .  S
C385        C386   1.353       .  D
C385       H1219   1.086       .  S
C386        H388   1.087       .  S
H387       C1217   1.086   1_455  S
C389        C390   1.354       .  D
C389        H391   1.086       .  S
C390       H1224   1.086       .  S
H392       C1222   1.086       .  S
C393        C394   1.345   1_655  D
C394        C899   1.468       .  S
C394       H1228   1.087       .  S
H396       C1226   1.087       .  S
C397        C398   1.342       .  D
C398       H1232   1.088       .  S
H400       C1230   1.086       .  S
C401        C676   1.458       .  S
C401        C402   1.335       .  D
C402        H820   1.089       .  S
H404        C818   1.088       .  S
C405        C406   1.340       .  D
C405        H407   1.087       .  S
C406        H616   1.087       .  S
H408        C614   1.087   1_556  S
C409        C410   1.343       .  D
C409       H1659   1.087       .  S
C410        H412   1.086       .  S
H411       C1657   1.086       .  S
C413        C414   1.339   1_545  D
C413       H1247   1.087       .  S
C414       C1077   1.444       .  S
C414        H416   1.088       .  S
H415       C1245   1.087       .  S
O417       Ni423   1.915       .  S
O417        C646   1.263       .  A
O418       Ni441   1.881       .  S
O419        H442   0.967       .  S
O419       Ni857   1.883       .  S
O419       Ni643   1.910       .  S
C420        O437   1.274   1_655  A
C420       O1261   1.276       .  A
C420        C621   1.444   1_655  S
O421       Ni440   1.936       .  S
O421        C635   1.275       .  A
O422       Ni440   1.914       .  S
O422        C424   1.268       .  A
Ni423       O426   1.915       .  S
Ni423       O428   1.902       .  S
C424       O1266   1.275       .  A
C424        C605   1.483       .  S
O425       Ni441   1.897       .  S
O425        C431   1.278       .  A
O426       C1263   1.276   1_565  A
C427        O629   1.274       .  A
C427        C610   1.459       .  S
O428        C430   1.265       .  A
O429       Ni440   1.924       .  S
O429       C1252   1.278       .  A
C430       O1268   1.266   1_455  A
C430        C601   1.467   1_455  S
C431       O1258   1.279       .  A
C431        C618   1.468       .  S
H432        O433   0.966       .  S
O433       Ni649   1.907   1_564  S
O433       Ni851   1.894       .  S
O434       Ni435   1.923       .  S
O434       C1256   1.269       .  A
Ni435       O439   1.873   1_554  S
Ni435       O437   1.899       .  S
Ni435       O627   1.895   1_554  S
Ni435       O849   1.873   1_455  S
O436       Ni441   1.946   1_565  S
O436       C1262   1.275       .  A
C438        O625   1.270   1_554  A
C438        C613   1.453       .  S
Ni441       O835   1.865       .  S
Ni441       O641   1.901       .  S
O443       Ni451   1.882       .  S
O443       C1285   1.277       .  A
O444       C1286   1.274       .  A
O445       C1287   1.287       .  A
O446       Ni451   1.943       .  S
O446       C1288   1.287       .  A
O447        C456   1.288       .  A
O448       Ni452   1.946       .  S
O448        C455   1.287       .  A
O449       Ni452   1.894       .  S
O449        C454   1.276       .  A
O450        C453   1.275       .  A
Ni451      Ni868   2.389       .  S
Ni452      Ni867   2.389       .  S
C453       O1275   1.280       .  A
C453       C1454   1.452       .  S
C454       O1276   1.280       .  A
C454        C617   1.454       .  S
C455       O1277   1.284       .  A
C455        C593   1.500       .  S
C456       O1278   1.285       .  A
C456        C597   1.507       .  S
O457       Ni465   1.891       .  S
O458       Ni465   1.901       .  S
O459       Ni465   1.956       .  S
O460       Ni673   1.959   1_554  S
O461       Ni466   1.956   1_554  S
O461        C470   1.288   1_565  A
O462       Ni674   1.959       .  S
O462        C469   1.289   1_565  A
O463       Ni466   1.887       .  S
O463        C676   1.279   1_565  A
O464       Ni466   1.902       .  S
O464        C467   1.274   1_556  A
Ni465       O668   1.949       .  S
Ni466       O670   1.945       .  S
C467        C614   1.453       .  S
C468        O671   1.275   1_545  A
C469        C585   1.512       .  S
O471       Ni479   1.967       .  S
O471        C689   1.292       .  A
O472      Ni1311   1.958       .  S
O472        C690   1.287       .  A
O473       Ni479   1.913       .  S
O473       C1523   1.277       .  A
O474       Ni479   1.899       .  S
O474       C1524   1.278   1_455  A
O475       Ni480   1.933       .  S
O475        C484   1.283       .  A
O476       Ni480   1.918   1_556  S
O476        C483   1.281       .  A
O477       Ni480   1.955       .  S
O477        C482   1.289   1_554  A
O478      Ni1312   1.971       .  S
O478        C481   1.290   1_554  A
Ni479      O1304   1.979   1_455  S
Ni479     Ni1520   2.384   1_455  S
Ni480      O1310   1.967       .  S
Ni480     Ni1519   2.380   1_554  S
C481        O679   1.290       .  A
C481        C581   1.530       .  S
C482        O680   1.291       .  A
C482        C786   1.530       .  S
C483       O1513   1.280       .  A
C483       C1642   1.475       .  S
C484       O1514   1.282   1_554  A
C484        C606   1.489       .  S
O485      Ni1325   1.875       .  S
O485        C495   1.273       .  A
O486       Ni493   1.882       .  S
O486        C496   1.281       .  A
O487       Ni493   1.942       .  S
O487       C1329   1.285       .  A
O488       Ni493   1.937       .  S
O488       C1330   1.284   1_455  A
O489       Ni494   1.929       .  S
O489        C498   1.283       .  A
O490       Ni494   1.940       .  S
O490        C497   1.285       .  A
O491      Ni1326   1.901   1_455  S
O491        C496   1.273       .  A
O492       Ni494   1.913       .  S
O492        C495   1.281       .  A
Ni493      O1317   1.900   1_455  S
Ni493     Ni1326   2.390   1_455  S
Ni494      O1323   1.926       .  S
Ni494     Ni1325   2.388       .  S
C495        C573   1.449       .  S
C496        C569   1.452       .  S
C497       O1319   1.288       .  A
C497        C598   1.508       .  S
C498       O1320   1.288       .  A
C498        C594   1.501       .  S
O499       Ni505   1.928       .  S
O499        C520   1.269       .  A
O500       Ni523   1.859       .  S
O500        C509   1.257       .  A
O501        H524   0.966       .  S
O501       Ni505   1.917       .  S
O501       Ni523   1.883       .  S
O501       Ni517   1.887       .  S
C502        O519   1.262       .  A
C502        O511   1.269       .  A
C502        C566   1.463       .  S
O503       Ni522   1.920       .  S
O503        C509   1.270       .  A
O504       Ni522   1.909       .  S
O504        C506   1.276       .  A
Ni505       O508   1.930       .  S
Ni505       O510   1.894       .  S
C506        O516   1.276       .  A
C506        C557   1.456       .  S
O507       Ni523   1.892       .  S
O507        C513   1.268       .  A
O508        C513   1.278       .  A
C509        C570   1.442       .  S
O510        C512   1.264       .  A
O511       Ni522   1.933       .  S
C512        O518   1.262       .  A
C512        C553   1.452       .  S
C513        C561   1.461       .  S
H514        O515   0.967       .  S
O515       Ni523   1.919       .  S
O515       Ni517   1.884       .  S
O515       Ni522   1.921       .  S
O516       Ni517   1.924       .  S
Ni517       O521   1.866       .  S
Ni517       O519   1.891       .  S
O518       Ni523   1.899       .  S
C520        O521   1.259       .  A
C520        C574   1.448       .  S
O525       Ni533   1.914   1_554  S
O525        C535   1.278       .  A
O526       Ni741   1.888       .  S
O526        C536   1.278       .  A
O527       Ni533   1.953       .  S
O527        C745   1.288       .  A
O528       Ni533   1.967       .  S
O528        C538   1.289       .  A
O529       Ni534   1.954       .  S
O529        C746   1.289       .  A
O530       Ni534   1.966       .  S
O530        C537   1.289       .  A
O531       Ni534   1.919       .  S
O531        C536   1.279       .  A
O532       Ni742   1.893   1_554  S
O532        C535   1.279       .  A
Ni533       O734   1.902       .  S
Ni533      Ni742   2.384       .  S
Ni534       O740   1.905       .  S
Ni534      Ni741   2.384       .  S
C535        C562   1.459       .  S
C536        C565   1.461       .  S
C537        O735   1.290       .  A
C537        C577   1.527       .  S
C538        O737   1.291   1_556  A
C538        C582   1.530       .  S
O539       Ni547   1.938       .  S
O539        C549   1.284   1_565  A
O540        C550   1.287       .  A
O541        C551   1.277       .  A
O542       Ni547   1.901       .  S
O542        C552   1.282       .  A
O543       Ni548   1.910   1_565  S
O543        C552   1.276       .  A
O544        C551   1.279       .  A
O545        C550   1.288       .  A
O546       Ni548   1.965       .  S
O546        C549   1.290       .  A
Ni547      Ni548   2.385   1_565  S
C549        C586   1.512   1_545  S
C550        C590   1.516       .  S
C551        C554   1.459       .  S
C552        C558   1.467       .  S
C553        C554   1.337       .  D
C553        H555   1.088       .  S
C554        H556   1.087       .  S
C557        C558   1.335       .  D
C557        H559   1.088       .  S
C558        H560   1.087       .  S
C561        C562   1.337       .  D
C561        H563   1.088       .  S
C562        H564   1.087       .  S
C565        C566   1.340       .  D
C565        H567   1.086       .  S
C566        H568   1.089       .  S
C569        C570   1.329       .  D
C569        H571   1.087       .  S
C570        H572   1.090       .  S
C573        C574   1.342       .  D
C573        H575   1.084       .  S
C574        H576   1.086       .  S
C577        C578   1.369       .  D
C577        H787   1.086       .  S
C578        C690   1.529       .  S
C578        H580   1.086       .  S
H579        C785   1.086       .  S
C581        C582   1.368       .  D
C581        H791   1.086       .  S
C582        H584   1.086   1_556  S
H583        C789   1.086       .  S
C585        C586   1.357   1_545  D
C585        H587   1.086       .  S
C589        C590   1.364       .  D
C589        H591   1.086       .  S
C593        C594   1.352       .  D
C593       H1427   1.086       .  S
C594        H596   1.087       .  S
H595       C1425   1.086       .  S
C597        C598   1.356       .  D
C597        H599   1.086       .  S
C598       H1432   1.086       .  S
H600       C1430   1.086   1_655  S
C601        C602   1.338   1_655  D
C601        H811   1.088       .  S
C602       C1523   1.463       .  S
C602       H1436   1.087       .  S
H603        C809   1.087       .  S
H604       C1434   1.087       .  S
C605        C606   1.348       .  D
C605        H815   1.086       .  S
C606       H1440   1.087   1_554  S
H607        C813   1.086       .  S
H608       C1438   1.087   1_655  S
C609        C610   1.338       .  D
C609        H819   1.087       .  S
H611        C817   1.087       .  S
C613        C614   1.334       .  D
C613        H615   1.089       .  S
C617        C618   1.342   1_565  D
C617       H1035   1.088       .  S
C618        H620   1.086       .  S
H619       C1033   1.087       .  S
C621        C622   1.341   1_455  D
C621       H1455   1.088       .  S
C622       C1285   1.458   1_655  S
C622        H624   1.087       .  S
H623       C1453   1.088       .  S
O625       Ni631   1.926       .  S
O626       Ni649   1.866   1_565  S
O627        H650   0.966       .  S
O627      Ni1065   1.875   1_455  S
C628        O645   1.275       .  A
C628       O1469   1.277       .  A
C628        C829   1.450       .  S
O629       Ni648   1.935       .  S
O630       Ni648   1.913       .  S
O630        C632   1.268       .  A
Ni631       O634   1.920       .  S
Ni631       O636   1.902       .  S
C632       O1474   1.275       .  A
C632        C813   1.473       .  S
O633       Ni649   1.905       .  S
O633        C639   1.275       .  A
O634       C1471   1.276   1_565  A
C635        C818   1.452   1_554  S
O636        C638   1.267       .  A
O637       Ni648   1.940       .  S
O637       C1460   1.278       .  A
C638       O1476   1.271   1_455  A
C638        C809   1.475   1_455  S
C639       O1466   1.276   1_545  A
C639        C826   1.454       .  S
H640        O641   0.966       .  S
O641      Ni1059   1.877       .  S
O642       Ni643   1.909       .  S
O642       C1464   1.264   1_455  A
Ni643       O647   1.895       .  S
Ni643       O645   1.912   1_455  S
Ni643      O1057   1.877   1_455  S
O644       Ni649   1.925   1_565  S
O644       C1470   1.267       .  A
C646        C821   1.451       .  S
Ni649      O1043   1.866       .  S
O651       Ni659   1.899   1_655  S
O651       C1493   1.280       .  A
O652       C1494   1.276       .  A
O653       C1495   1.286       .  A
O654       Ni659   1.933       .  S
O654       C1496   1.284   1_455  A
O655        C664   1.284       .  A
O656       Ni660   1.938   1_565  S
O656        C663   1.284       .  A
O657       Ni660   1.901       .  S
O657        C662   1.282       .  A
O658        C661   1.279       .  A
Ni659     Ni1076   2.389   1_455  S
Ni660     Ni1075   2.390       .  S
C661       O1483   1.280       .  A
C661       C1662   1.463       .  S
C662       O1484   1.276       .  A
C662        C825   1.462   1_545  S
C663       O1485   1.285       .  A
C663        C801   1.497       .  S
C664       O1486   1.284       .  A
C664        C805   1.492       .  S
O665       Ni673   1.876       .  S
O666       Ni673   1.887       .  S
O667       Ni673   1.958       .  S
O669       Ni674   1.962       .  S
O669        C678   1.289   1_565  A
O670        C677   1.287       .  A
O671       Ni674   1.897       .  S
O672       Ni674   1.904       .  S
O672        C675   1.280   1_565  A
C675        C822   1.453       .  S
C677        C793   1.515       .  S
O679       Ni687   1.957       .  S
O680      Ni1519   1.972       .  S
O681       Ni687   1.922       .  S
O681       C1315   1.280       .  A
O682       Ni687   1.913       .  S
O682       C1316   1.280   1_556  A
O683       Ni688   1.919       .  S
O683        C692   1.281       .  A
O684       Ni688   1.914       .  S
O684        C691   1.278       .  A
O685       Ni688   1.967       .  S
O685        C690   1.292       .  A
O686      Ni1520   1.961   1_455  S
O686        C689   1.288       .  A
Ni687      O1512   1.969   1_455  S
Ni687     Ni1312   2.382   1_556  S
Ni688      O1518   1.979       .  S
Ni688     Ni1311   2.380       .  S
C689        C789   1.531       .  S
C691       O1305   1.284       .  A
C691       C1434   1.477       .  S
C692       O1306   1.282       .  A
C692        C814   1.482       .  S
O693      Ni1533   1.903       .  S
O693        C703   1.277       .  A
O694       Ni701   1.899       .  S
O694        C704   1.277       .  A
O695       Ni701   1.933       .  S
O695       C1537   1.284   1_455  A
O696       Ni701   1.944       .  S
O696       C1538   1.286       .  A
O697       Ni702   1.942       .  S
O697        C706   1.287       .  A
O698       Ni702   1.942       .  S
O698        C705   1.286       .  A
O699      Ni1534   1.912   1_455  S
O699        C704   1.279       .  A
O700       Ni702   1.901       .  S
O700        C703   1.279       .  A
Ni701      O1525   1.907   1_455  S
Ni701     Ni1534   2.390   1_455  S
Ni702      O1531   1.915       .  S
Ni702     Ni1533   2.391       .  S
C703        C781   1.452       .  S
C704        C777   1.453       .  S
C705       O1527   1.282       .  A
C705        C806   1.491       .  S
C706       O1528   1.283       .  A
C706        C802   1.499       .  S
O707       Ni713   1.942       .  S
O707        C728   1.271       .  A
O708       Ni731   1.872       .  S
O708        C717   1.262       .  A
O709        H732   0.966       .  S
O709       Ni713   1.925       .  S
O709       Ni731   1.897       .  S
O709       Ni725   1.882       .  S
C710        O727   1.262       .  A
C710        O719   1.273       .  A
C710        C774   1.462       .  S
O711       Ni730   1.933       .  S
O711        C717   1.271       .  A
O712       Ni730   1.901       .  S
O712        C714   1.270       .  A
Ni713       O716   1.930       .  S
Ni713       O718   1.896       .  S
C714        O724   1.270       .  A
C714        C765   1.454       .  S
O715       Ni731   1.888       .  S
O715        C721   1.266       .  A
O716        C721   1.279       .  A
C717        C778   1.470       .  S
O718        C720   1.266       .  A
O719       Ni730   1.939       .  S
C720        O726   1.264       .  A
C720        C761   1.454       .  S
C721        C769   1.461       .  S
H722        O723   0.967       .  S
O723       Ni731   1.902       .  S
O723       Ni725   1.898       .  S
O723       Ni730   1.924       .  S
O724       Ni725   1.919       .  S
Ni725       O729   1.874       .  S
Ni725       O727   1.883       .  S
O726       Ni731   1.902       .  S
C728        O729   1.259       .  A
C728        C782   1.460       .  S
O733       Ni741   1.903       .  S
O733        C743   1.275       .  A
O734        C744   1.281       .  A
O735       Ni741   1.959       .  S
O736       Ni741   1.975       .  S
O736        C746   1.291       .  A
O737       Ni742   1.961   1_554  S
O738       Ni742   1.975       .  S
O738        C745   1.292       .  A
O739       Ni742   1.910       .  S
O739        C744   1.276       .  A
O740        C743   1.282       .  A
C743        C770   1.459       .  S
C744        C773   1.460       .  S
C745        C785   1.529       .  S
C746        C790   1.529       .  S
O747       Ni755   1.959       .  S
O747        C757   1.288   1_565  A
O748        C758   1.288       .  A
O749        C759   1.277       .  A
O750       Ni755   1.892       .  S
O750        C760   1.280       .  A
O751       Ni756   1.909   1_565  S
O751        C760   1.276       .  A
O752        C759   1.279       .  A
O753        C758   1.287       .  A
O754       Ni756   1.946       .  S
O754        C757   1.287       .  A
Ni755      Ni756   2.386   1_565  S
C757        C794   1.516       .  S
C758        C798   1.514       .  S
C759        C762   1.459       .  S
C760        C766   1.461       .  S
C761        C762   1.337       .  D
C761        H763   1.088       .  S
C762        H764   1.087       .  S
C765        C766   1.336       .  D
C765        H767   1.088       .  S
C766        H768   1.087       .  S
C769        C770   1.333       .  D
C769        H771   1.088       .  S
C770        H772   1.087       .  S
C773        C774   1.336       .  D
C773        H775   1.087       .  S
C774        H776   1.089       .  S
C777        C778   1.342       .  D
C777        H779   1.087       .  S
C778        H780   1.087       .  S
C781        C782   1.340       .  D
C781        H783   1.083       .  S
C782        H784   1.086       .  S
C785        C786   1.367       .  D
C786        H788   1.086   1_556  S
C789        C790   1.369       .  D
C790        H792   1.086       .  S
C793        C794   1.360   1_565  D
C793        H795   1.086       .  S
C797        C798   1.361       .  D
C797        H799   1.086       .  S
C801        C802   1.356       .  D
C801       H1635   1.086       .  S
C802        H804   1.086       .  S
H803       C1633   1.086       .  S
C805        C806   1.349       .  D
C805        H807   1.086       .  S
C806       H1640   1.087       .  S
H808       C1638   1.087   1_455  S
C809        C810   1.343   1_655  D
C810       C1315   1.470       .  S
C810       H1644   1.086       .  S
H812       C1642   1.086       .  S
C813        C814   1.346       .  D
C814       H1648   1.087       .  S
H816       C1646   1.087       .  S
C817        C818   1.342       .  D
C821        C822   1.335   1_565  D
C821        H823   1.087       .  S
C825        C826   1.331   1_565  D
C825       H1243   1.087       .  S
C826        H828   1.089       .  S
H827       C1241   1.087       .  S
C829        C830   1.340       .  D
C829       H1663   1.089       .  S
C830       C1493   1.459       .  S
C830        H832   1.086       .  S
H831       C1661   1.086       .  S
O833       Ni839   1.920       .  S
O833       C1062   1.272       .  A
O834       Ni857   1.901   1_655  S
O834       C1259   1.266       .  A
O835        H858   0.966       .  S
O835      Ni1255   1.889   1_545  S
O835      Ni1059   1.920       .  S
C836        O853   1.265   1_545  A
C836       C1037   1.480       .  S
O837       Ni856   1.918       .  S
O837       C1051   1.266   1_554  A
O838       Ni856   1.905       .  S
O838        C840   1.266       .  A
Ni839       O842   1.925       .  S
Ni839       O844   1.907       .  S
Ni839      O1251   1.887       .  S
C840       C1021   1.471   1_655  S
O841       Ni857   1.893       .  S
O841        C847   1.278       .  A
C843       O1250   1.260       .  A
C843       O1045   1.273       .  A
C843       C1026   1.454       .  S
O844        C846   1.266       .  A
O845       Ni856   1.932       .  S
C846       C1017   1.478       .  S
C847       C1034   1.443       .  S
H848        O849   0.966       .  S
O849      Ni1065   1.880   1_554  S
O849      Ni1272   1.896       .  S
O850       Ni851   1.962   1_545  S
Ni851       O855   1.886       .  S
Ni851       O853   1.870       .  S
Ni851      O1043   1.887   1_564  S
O852       Ni857   1.910   1_655  S
C854       O1041   1.267       .  A
C854       O1271   1.270       .  A
C854       C1029   1.452       .  S
O855       C1270   1.269       .  A
Ni856      O1265   1.908       .  S
Ni857      O1057   1.915   1_455  S
O859       Ni867   1.910       .  S
O860      Ni1283   1.913       .  S
O861      Ni1283   1.930       .  S
O862       Ni867   1.933   1_545  S
O863      Ni1284   1.927   1_545  S
O863        C872   1.282   1_655  A
O864       Ni868   1.948       .  S
O864        C871   1.286       .  A
O865       Ni868   1.903       .  S
O865        C870   1.282       .  A
O866      Ni1284   1.911       .  S
O866        C869   1.278       .  A
Ni867      O1276   1.914       .  S
Ni867      O1277   1.936       .  S
Ni868      O1279   1.948       .  S
Ni868      O1282   1.913   1_455  S
C870       C1033   1.449       .  S
C871       C1009   1.510       .  S
C872       C1013   1.502       .  S
O873       Ni881   1.887       .  S
O873       C1507   1.277       .  A
O874       Ni881   1.900       .  S
O874       C1300   1.274       .  A
O875       Ni881   1.954       .  S
O875       C1301   1.289       .  A
O876      Ni1089   1.964       .  S
O876       C1302   1.290   1_545  A
O877       Ni882   1.966   1_554  S
O877        C886   1.290       .  A
O878      Ni1090   1.944       .  S
O878        C885   1.287       .  A
O879       Ni882   1.892       .  S
O879       C1092   1.276       .  A
O880       Ni882   1.905   1_554  S
O880        C883   1.277       .  A
Ni881      O1084   1.944       .  S
Ni881     Ni1506   2.387   1_545  S
Ni882      O1086   1.954       .  S
Ni882     Ni1505   2.388       .  S
C883       O1497   1.277       .  A
C883       C1030   1.451       .  S
C884       O1290   1.275       .  A
C884       O1087   1.281       .  A
C884       C1441   1.458       .  S
C885       O1291   1.288       .  A
C885       C1001   1.512       .  S
C886       O1292   1.286       .  A
C886       C1421   1.516       .  S
O887       Ni895   1.954       .  S
O887       C1105   1.289       .  A
O888       C1106   1.291       .  A
O889       Ni895   1.925       .  S
O890       Ni895   1.913       .  S
O891       Ni896   1.920       .  S
O891        C900   1.279       .  A
O892       Ni896   1.910       .  S
O892        C899   1.280   1_654  A
O893       Ni896   1.952       .  S
O893        C898   1.288       .  A
O894        C897   1.290       .  A
C897       O1095   1.290   1_554  A
C897        C997   1.530   1_554  S
C898       O1096   1.289   1_554  A
C898       C1202   1.523       .  S
C900       C1022   1.468       .  S
O901        C911   1.277       .  A
O902       Ni909   1.889       .  S
O902        C912   1.280       .  A
O903       Ni909   1.930       .  S
O904       Ni909   1.937       .  S
O905       Ni910   1.941       .  S
O905        C914   1.286   1_655  A
O906       Ni910   1.947   1_455  S
O906        C913   1.287       .  A
O907        C912   1.277       .  A
O908       Ni910   1.888       .  S
O908        C911   1.279       .  A
C911        C989   1.458       .  S
C912        C985   1.457       .  S
C913       C1014   1.505       .  S
C914       C1010   1.509       .  S
O915       Ni921   1.934       .  S
O915        C936   1.273       .  A
O916       Ni939   1.867       .  S
O916        C925   1.260       .  A
O917        H940   0.966       .  S
O917       Ni921   1.917       .  S
O917       Ni939   1.892       .  S
O917       Ni933   1.894       .  S
C918        O935   1.261       .  A
C918        O927   1.273       .  A
C918        C982   1.460       .  S
O919       Ni938   1.931       .  S
O919        C925   1.271       .  A
O920       Ni938   1.917       .  S
O920        C922   1.276       .  A
Ni921       O924   1.943       .  S
Ni921       O926   1.909       .  S
C922        O932   1.273       .  A
C922        C973   1.462       .  S
O923       Ni939   1.886       .  S
O923        C929   1.265       .  A
O924        C929   1.276       .  A
C925        C986   1.453       .  S
O926        C928   1.270       .  A
O927       Ni938   1.939       .  S
C928        O934   1.266       .  A
C928        C969   1.461       .  S
C929        C977   1.462       .  S
H930        O931   0.968       .  S
O931       Ni939   1.907       .  S
O931       Ni933   1.890       .  S
O931       Ni938   1.922       .  S
O932       Ni933   1.923       .  S
Ni933       O937   1.869       .  S
Ni933       O935   1.885       .  S
O934       Ni939   1.917       .  S
C936        O937   1.259       .  A
C936        C990   1.454       .  S
O941       Ni949   1.912   1_554  S
O941        C951   1.277       .  A
O942      Ni1157   1.897       .  S
O942        C952   1.281       .  A
O943       Ni949   1.951       .  S
O943       C1161   1.288   1_556  A
O944       Ni949   1.968       .  S
O944        C954   1.290   1_556  A
O945       Ni950   1.961       .  S
O945       C1162   1.291       .  A
O946       Ni950   1.976       .  S
O946        C953   1.292       .  A
O947       Ni950   1.909       .  S
O947        C952   1.276       .  A
O948      Ni1158   1.897       .  S
O948        C951   1.280       .  A
Ni949      O1150   1.897       .  S
Ni949     Ni1158   2.384   1_556  S
Ni950      O1156   1.897       .  S
Ni950     Ni1157   2.384       .  S
C951        C978   1.462       .  S
C952        C981   1.459       .  S
C953       O1151   1.288       .  A
C953        C993   1.529       .  S
C954       O1153   1.291       .  A
C954        C998   1.531       .  S
O955       Ni963   1.949       .  S
O955        C965   1.286       .  A
O956      Ni1379   1.963       .  S
O956        C966   1.289   1_565  A
O957      Ni1379   1.903   1_545  S
O957        C967   1.275       .  A
O958       Ni963   1.901       .  S
O958        C968   1.281       .  A
O959       Ni964   1.916       .  S
O959        C968   1.278       .  A
O960      Ni1380   1.910       .  S
O960        C967   1.283       .  A
O961      Ni1380   1.945       .  S
O961        C966   1.286       .  A
O962       Ni964   1.953       .  S
O962        C965   1.288       .  A
Ni963      O1372   1.946       .  S
Ni963      O1373   1.918       .  S
Ni963      Ni964   2.384       .  S
Ni964      O1376   1.902       .  S
Ni964      O1377   1.960       .  S
C965       C1002   1.512       .  S
C966       C1006   1.516       .  S
C967        C970   1.466       .  S
C968        C974   1.473       .  S
C969        C970   1.335       .  D
C969        H971   1.087       .  S
C970        H972   1.087       .  S
C973        C974   1.338       .  D
C973        H975   1.088       .  S
C974        H976   1.086       .  S
C977        C978   1.338       .  D
C977        H979   1.088       .  S
C978        H980   1.087       .  S
C981        C982   1.335       .  D
C981        H983   1.087       .  S
C982        H984   1.088       .  S
C985        C986   1.330       .  D
C985        H987   1.086       .  S
C986        H988   1.091       .  S
C989        C990   1.336       .  D
C989        H991   1.086       .  S
C990        H992   1.090       .  S
C993        C994   1.366       .  D
C993       H1203   1.086       .  S
C994       C1106   1.529       .  S
C994        H996   1.086       .  S
H995       C1201   1.086       .  S
C997        C998   1.369   1_556  D
C997       H1207   1.086       .  S
C998       H1000   1.086       .  S
H999       C1205   1.086       .  S
C1001      C1002   1.360       .  D
C1001      H1003   1.086       .  S
C1002      H1420   1.086       .  S
H1004      C1418   1.086   1_565  S
C1005      C1302   1.515       .  S
C1005      C1006   1.359   1_565  D
C1005      H1007   1.086       .  S
C1006      H1424   1.086       .  S
H1008      C1422   1.086       .  S
C1009      C1010   1.359       .  D
C1010      H1012   1.086   1_455  S
C1013      C1014   1.353       .  D
C1013      H1015   1.086   1_455  S
C1017      C1018   1.343       .  D
C1017      H1227   1.087       .  S
H1019      C1225   1.086       .  S
C1021      C1022   1.339   1_455  D
C1021      H1231   1.088       .  S
H1023      C1229   1.088   1_455  S
C1025      C1300   1.455       .  S
C1025      C1026   1.333       .  D
C1025      H1235   1.087       .  S
C1026      H1444   1.088       .  S
H1027      C1233   1.088       .  S
H1028      C1442   1.087       .  S
C1029      C1030   1.341       .  D
C1029      H1031   1.087       .  S
C1030      H1656   1.087       .  S
H1032      C1654   1.087       .  S
C1033      C1034   1.331       .  D
C1034      H1036   1.088       .  S
C1037      C1038   1.350   1_545  D
C1038      H1040   1.087       .  S
O1041     Ni1047   1.905   1_554  S
O1042     Ni1065   1.860       .  S
O1042      C1467   1.265       .  A
O1043      H1066   0.966       .  S
O1043     Ni1463   1.903   1_545  S
C1044      O1061   1.279       .  A
C1044      C1245   1.459       .  S
O1045     Ni1064   1.928       .  S
O1046     Ni1064   1.905       .  S
O1046      C1048   1.268       .  A
Ni1047     O1050   1.925       .  S
Ni1047     O1052   1.905       .  S
Ni1047     O1459   1.882   1_556  S
C1048      C1229   1.469       .  S
O1049     Ni1065   1.891       .  S
O1049      C1055   1.270   1_655  A
C1051      O1458   1.266       .  A
C1051      C1234   1.453       .  S
O1052      C1054   1.266   1_556  A
O1053     Ni1064   1.933       .  S
C1054      C1225   1.479       .  S
C1055      C1242   1.449   1_455  S
H1056      O1057   0.966       .  S
O1057     Ni1480   1.885       .  S
O1058     Ni1059   1.930       .  S
Ni1059     O1063   1.899       .  S
Ni1059     O1061   1.910       .  S
O1060     Ni1065   1.929       .  S
C1062      O1479   1.266       .  A
C1062      C1237   1.450       .  S
O1063      C1478   1.266       .  A
Ni1064     O1473   1.905       .  S
O1067     Ni1075   1.904       .  S
O1068     Ni1491   1.913       .  S
O1069     Ni1491   1.932       .  S
O1070     Ni1075   1.950       .  S
O1071     Ni1492   1.939   1_545  S
O1071      C1080   1.285   1_655  A
O1072     Ni1076   1.948       .  S
O1072      C1079   1.287       .  A
O1073     Ni1076   1.886       .  S
O1073      C1078   1.278   1_655  A
O1074     Ni1492   1.902       .  S
O1074      C1077   1.275       .  A
Ni1075     O1484   1.912       .  S
Ni1075     O1485   1.936   1_545  S
Ni1076     O1487   1.947       .  S
Ni1076     O1490   1.911       .  S
C1078      C1241   1.459       .  S
C1079      C1217   1.501       .  S
C1080      C1221   1.510   1_455  S
O1081     Ni1089   1.888       .  S
O1081      C1299   1.273   1_545  A
O1082     Ni1089   1.899   1_556  S
O1082      C1508   1.279   1_545  A
O1083     Ni1089   1.970   1_556  S
O1083      C1509   1.291   1_545  A
O1084      C1510   1.287       .  A
O1085     Ni1090   1.951       .  S
O1085      C1094   1.286       .  A
O1086      C1093   1.290       .  A
O1087     Ni1090   1.904       .  S
O1088     Ni1090   1.908       .  S
O1088      C1091   1.277       .  A
Ni1089    Ni1298   2.387   1_545  S
Ni1090    Ni1297   2.387       .  S
C1091      O1289   1.277       .  A
C1091      C1238   1.453       .  S
C1092      O1498   1.276       .  A
C1092      C1649   1.440       .  S
C1093      O1499   1.286       .  A
C1093      C1209   1.516       .  S
C1094      O1500   1.287       .  A
C1094      C1629   1.510       .  S
O1095     Ni1103   1.960       .  S
O1097     Ni1103   1.919       .  S
O1098     Ni1103   1.913       .  S
O1099     Ni1104   1.922       .  S
O1099      C1108   1.280       .  A
O1100     Ni1104   1.901       .  S
O1100      C1107   1.280   1_655  A
O1101     Ni1104   1.955       .  S
O1101      C1106   1.289       .  A
O1102      C1105   1.290       .  A
C1105      C1205   1.527       .  S
C1108      C1230   1.468       .  S
O1109      C1119   1.281       .  A
O1110     Ni1117   1.900       .  S
O1110      C1120   1.279       .  A
O1111     Ni1117   1.939       .  S
O1112     Ni1117   1.941       .  S
O1113     Ni1118   1.949       .  S
O1113      C1122   1.288       .  A
O1114     Ni1118   1.955       .  S
O1114      C1121   1.289   1_655  A
O1115      C1120   1.275       .  A
O1116     Ni1118   1.885       .  S
O1116      C1119   1.274       .  A
C1119      C1197   1.450       .  S
C1120      C1193   1.446       .  S
C1121      C1222   1.509       .  S
C1122      C1218   1.505       .  S
O1123     Ni1129   1.918       .  S
O1123      C1144   1.267       .  A
O1124     Ni1147   1.877       .  S
O1124      C1133   1.266       .  A
O1125      H1148   0.966       .  S
O1125     Ni1129   1.919       .  S
O1125     Ni1147   1.908       .  S
O1125     Ni1141   1.906       .  S
C1126      O1143   1.264       .  A
C1126      O1135   1.272       .  A
C1126      C1190   1.459       .  S
O1127     Ni1146   1.928       .  S
O1127      C1133   1.269       .  A
O1128     Ni1146   1.892       .  S
O1128      C1130   1.269       .  A
Ni1129     O1132   1.914       .  S
Ni1129     O1134   1.897       .  S
C1130      O1140   1.274       .  A
C1130      C1181   1.462       .  S
O1131     Ni1147   1.906       .  S
O1131      C1137   1.263       .  A
O1132      C1137   1.262       .  A
C1133      C1194   1.458       .  S
O1134      C1136   1.273       .  A
O1135     Ni1146   1.933       .  S
C1136      O1142   1.279       .  A
C1136      C1177   1.467       .  S
C1137      C1185   1.459       .  S
H1138      O1139   0.966       .  S
O1139     Ni1147   1.898       .  S
O1139     Ni1141   1.900       .  S
O1139     Ni1146   1.915       .  S
O1140     Ni1141   1.940       .  S
Ni1141     O1145   1.882       .  S
Ni1141     O1143   1.889       .  S
O1142     Ni1147   1.949       .  S
C1144      O1145   1.268       .  A
C1144      C1198   1.458       .  S
O1149     Ni1157   1.910       .  S
O1149      C1159   1.277       .  A
O1150      C1160   1.280       .  A
O1151     Ni1157   1.952       .  S
O1152     Ni1157   1.961       .  S
O1152      C1162   1.288       .  A
O1153     Ni1158   1.961       .  S
O1154     Ni1158   1.967       .  S
O1154      C1161   1.290       .  A
O1155     Ni1158   1.909   1_556  S
O1155      C1160   1.276       .  A
O1156      C1159   1.279       .  A
C1159      C1186   1.459       .  S
C1160      C1189   1.460       .  S
C1161      C1201   1.523   1_554  S
C1162      C1206   1.527       .  S
O1163     Ni1171   1.954       .  S
O1163      C1173   1.287       .  A
O1164     Ni1587   1.944       .  S
O1164      C1174   1.286       .  A
O1165     Ni1587   1.908   1_545  S
O1165      C1175   1.278       .  A
O1166     Ni1171   1.905       .  S
O1166      C1176   1.280       .  A
O1167     Ni1172   1.904       .  S
O1167      C1176   1.277       .  A
O1168     Ni1588   1.908       .  S
O1168      C1175   1.280       .  A
O1169     Ni1588   1.957       .  S
O1169      C1174   1.288   1_545  A
O1170     Ni1172   1.951       .  S
O1170      C1173   1.288       .  A
Ni1171     O1580   1.946       .  S
Ni1171     O1581   1.923       .  S
Ni1171    Ni1172   2.386       .  S
Ni1172     O1584   1.892       .  S
Ni1172     O1585   1.952       .  S
C1173      C1210   1.514       .  S
C1174      C1214   1.511       .  S
C1175      C1178   1.465       .  S
C1176      C1182   1.460       .  S
C1177      C1178   1.341       .  D
C1177      H1179   1.087       .  S
C1178      H1180   1.087       .  S
C1181      C1182   1.340       .  D
C1181      H1183   1.087       .  S
C1182      H1184   1.087       .  S
C1185      C1186   1.342       .  D
C1185      H1187   1.088       .  S
C1186      H1188   1.087       .  S
C1189      C1190   1.339       .  D
C1189      H1191   1.087       .  S
C1190      H1192   1.088       .  S
C1193      C1194   1.334       .  D
C1193      H1195   1.088       .  S
C1194      H1196   1.087       .  S
C1197      C1198   1.335       .  D
C1197      H1199   1.089       .  S
C1198      H1200   1.086       .  S
C1201      C1202   1.363   1_556  D
C1202      H1204   1.086       .  S
C1205      C1206   1.367       .  D
C1206      H1208   1.086       .  S
C1209      C1210   1.362       .  D
C1209      H1211   1.086       .  S
C1210      H1628   1.086       .  S
H1212      C1626   1.086       .  S
C1213      C1510   1.514       .  S
C1213      C1214   1.359   1_545  D
C1213      H1215   1.087       .  S
C1214      H1632   1.086       .  S
H1216      C1630   1.086       .  S
C1217      C1218   1.357       .  D
C1218      H1220   1.086       .  S
C1221      C1222   1.356   1_655  D
C1221      H1223   1.086       .  S
C1225      C1226   1.346   1_554  D
C1229      C1230   1.339       .  D
C1233      C1508   1.460       .  S
C1233      C1234   1.338   1_565  D
C1234      H1652   1.087       .  S
H1236      C1650   1.088   1_554  S
C1237      C1238   1.339       .  D
C1237      H1239   1.088       .  S
C1238      H1448   1.087       .  S
H1240      C1446   1.088   1_545  S
C1241      C1242   1.337   1_455  D
C1242      H1244   1.088       .  S
C1245      C1246   1.340       .  D
C1246      H1248   1.088   1_545  S
O1249     Ni1255   1.908       .  S
O1249      C1478   1.266   1_565  A
O1250     Ni1273   1.880       .  S
O1251      H1274   0.967       .  S
O1251     Ni1475   1.884       .  S
C1252      O1269   1.278       .  A
C1252      C1453   1.452       .  S
O1253     Ni1272   1.933       .  S
O1253      C1467   1.272   1_554  A
O1254     Ni1272   1.914       .  S
O1254      C1256   1.270   1_655  A
Ni1255     O1258   1.928   1_565  S
Ni1255     O1260   1.898       .  S
C1256      C1437   1.474       .  S
O1257     Ni1273   1.892       .  S
O1257      C1263   1.271   1_655  A
C1259      O1461   1.269       .  A
C1259      C1442   1.459       .  S
O1260      C1262   1.265       .  A
O1261     Ni1272   1.914       .  S
C1262      C1433   1.479       .  S
C1263      C1450   1.446       .  S
H1264      O1265   0.966   1_565  S
O1265     Ni1481   1.907   1_554  S
O1266     Ni1267   1.943       .  S
Ni1267     O1271   1.901       .  S
Ni1267     O1269   1.904       .  S
Ni1267     O1459   1.910       .  S
O1268     Ni1273   1.917   1_565  S
C1270      O1457   1.267   1_554  A
C1270      C1445   1.454       .  S
Ni1273     O1473   1.900       .  S
O1275     Ni1283   1.905       .  S
O1278     Ni1283   1.936       .  S
O1279      C1288   1.286       .  A
O1280     Ni1284   1.938       .  S
O1280      C1287   1.284   1_655  A
O1281     Ni1284   1.896   1_455  S
O1281      C1286   1.282       .  A
O1282      C1285   1.278   1_655  A
C1286      C1449   1.454       .  S
C1287      C1425   1.501       .  S
C1288      C1429   1.507       .  S
O1289     Ni1297   1.884       .  S
O1290     Ni1297   1.900       .  S
O1291     Ni1297   1.957       .  S
O1292     Ni1505   1.943   1_554  S
O1293     Ni1298   1.940       .  S
O1293      C1302   1.285       .  A
O1294     Ni1506   1.962       .  S
O1294      C1301   1.288   1_565  A
O1295     Ni1298   1.905   1_556  S
O1295      C1508   1.277       .  A
O1296     Ni1298   1.909       .  S
O1296      C1299   1.281       .  A
Ni1297     O1500   1.946       .  S
Ni1298     O1502   1.938   1_554  S
C1299      C1446   1.452       .  S
C1300      O1503   1.281       .  A
C1301      C1417   1.521       .  S
O1303     Ni1311   1.951       .  S
O1303      C1521   1.287       .  A
O1304      C1522   1.293       .  A
O1305     Ni1311   1.934       .  S
O1306     Ni1311   1.926       .  S
O1307     Ni1312   1.921       .  S
O1307      C1316   1.280       .  A
O1308     Ni1312   1.915   1_556  S
O1308      C1315   1.281       .  A
O1309     Ni1312   1.954   1_655  S
O1309      C1314   1.289   1_554  A
O1310      C1313   1.289   1_554  A
C1313      O1511   1.290       .  A
C1313      C1413   1.528       .  S
C1314      O1512   1.290       .  A
C1314      C1618   1.527       .  S
C1316      C1438   1.473       .  S
O1317      C1327   1.278       .  A
O1318     Ni1325   1.871       .  S
O1318      C1328   1.277       .  A
O1319     Ni1325   1.952       .  S
O1320     Ni1325   1.953       .  S
O1321     Ni1326   1.946       .  S
O1321      C1330   1.288       .  A
O1322     Ni1326   1.949       .  S
O1322      C1329   1.288   1_655  A
O1323      C1328   1.280       .  A
O1324     Ni1326   1.891       .  S
O1324      C1327   1.275       .  A
C1327      C1405   1.445       .  S
C1328      C1401   1.466       .  S
C1329      C1430   1.507       .  S
C1330      C1426   1.502       .  S
O1331     Ni1337   1.921       .  S
O1331      C1352   1.269       .  A
O1332     Ni1355   1.870       .  S
O1332      C1341   1.261       .  A
O1333      H1356   0.966       .  S
O1333     Ni1337   1.913       .  S
O1333     Ni1355   1.885       .  S
O1333     Ni1349   1.883       .  S
C1334      O1351   1.262       .  A
C1334      O1343   1.266       .  A
C1334      C1398   1.461       .  S
O1335     Ni1354   1.923       .  S
O1335      C1341   1.269       .  A
O1336     Ni1354   1.904       .  S
O1336      C1338   1.277       .  A
Ni1337     O1340   1.931       .  S
Ni1337     O1342   1.903       .  S
C1338      O1348   1.284       .  A
C1338      C1389   1.465       .  S
O1339     Ni1355   1.892       .  S
O1339      C1345   1.268       .  A
O1340      C1345   1.276       .  A
C1341      C1402   1.452       .  S
O1342      C1344   1.266       .  A
O1343     Ni1354   1.925       .  S
C1344      O1350   1.268       .  A
C1344      C1385   1.465       .  S
C1345      C1393   1.460       .  S
H1346      O1347   0.966       .  S
O1347     Ni1355   1.919       .  S
O1347     Ni1349   1.894       .  S
O1347     Ni1354   1.919       .  S
O1348     Ni1349   1.947       .  S
Ni1349     O1353   1.878       .  S
Ni1349     O1351   1.901       .  S
O1350     Ni1355   1.925       .  S
C1352      O1353   1.265       .  A
C1352      C1406   1.445       .  S
O1357     Ni1365   1.912   1_554  S
O1357      C1367   1.277       .  A
O1358     Ni1573   1.892       .  S
O1358      C1368   1.279       .  A
O1359     Ni1365   1.957       .  S
O1359      C1577   1.289       .  A
O1360     Ni1365   1.968       .  S
O1360      C1370   1.290       .  A
O1361     Ni1366   1.957       .  S
O1361      C1578   1.289       .  A
O1362     Ni1366   1.967       .  S
O1362      C1369   1.290       .  A
O1363     Ni1366   1.913       .  S
O1363      C1368   1.277       .  A
O1364     Ni1574   1.894       .  S
O1364      C1367   1.279       .  A
Ni1365     O1566   1.898       .  S
Ni1365    Ni1574   2.384   1_556  S
Ni1366     O1572   1.906       .  S
Ni1366    Ni1573   2.384       .  S
C1367      C1394   1.459       .  S
C1368      C1397   1.458       .  S
C1369      O1567   1.290       .  A
C1369      C1409   1.530       .  S
C1370      O1569   1.290   1_556  A
C1370      C1414   1.528       .  S
O1371     Ni1379   1.965       .  S
O1371      C1381   1.292   1_565  A
O1372      C1382   1.286       .  A
O1373      C1383   1.280       .  A
O1374     Ni1379   1.893       .  S
O1374      C1384   1.278       .  A
O1375     Ni1380   1.928   1_565  S
O1375      C1384   1.282       .  A
O1376      C1383   1.280       .  A
O1377      C1382   1.289       .  A
O1378     Ni1380   1.950       .  S
O1378      C1381   1.285       .  A
Ni1379    Ni1380   2.383   1_565  S
C1381      C1418   1.522       .  S
C1382      C1422   1.516       .  S
C1383      C1386   1.471       .  S
C1384      C1390   1.474       .  S
C1385      C1386   1.342       .  D
C1385      H1387   1.087       .  S
C1386      H1388   1.086       .  S
C1389      C1390   1.345       .  D
C1389      H1391   1.087       .  S
C1390      H1392   1.086       .  S
C1393      C1394   1.340       .  D
C1393      H1395   1.088       .  S
C1394      H1396   1.087       .  S
C1397      C1398   1.341       .  D
C1397      H1399   1.087       .  S
C1398      H1400   1.088       .  S
C1401      C1402   1.338       .  D
C1401      H1403   1.086       .  S
C1402      H1404   1.090       .  S
C1405      C1406   1.335       .  D
C1405      H1407   1.089       .  S
C1406      H1408   1.086       .  S
C1409      C1410   1.367       .  D
C1409      H1619   1.086       .  S
C1410      C1522   1.528       .  S
C1410      H1412   1.086       .  S
H1411      C1617   1.086       .  S
C1413      C1414   1.367       .  D
C1413      H1623   1.086       .  S
C1414      H1416   1.086   1_556  S
H1415      C1621   1.086       .  S
C1417      C1418   1.366       .  D
C1417      H1419   1.086       .  S
C1421      C1422   1.359       .  D
C1421      H1423   1.086       .  S
C1425      C1426   1.357   1_455  D
C1426      H1428   1.086       .  S
C1429      C1430   1.359       .  D
C1429      H1431   1.086       .  S
C1433      C1434   1.350       .  D
C1433      H1643   1.086       .  S
H1435      C1641   1.088       .  S
C1437      C1438   1.343       .  D
C1437      H1647   1.087   1_554  S
H1439      C1645   1.087       .  S
C1441      C1442   1.338       .  D
C1441      H1651   1.087       .  S
H1443      C1649   1.088       .  S
C1445      C1446   1.332       .  D
C1445      H1447   1.088       .  S
C1449      C1450   1.332   1_565  D
C1450      H1452   1.089       .  S
C1453      C1454   1.341       .  D
C1454      H1456   1.088       .  S
O1457     Ni1463   1.922       .  S
O1458     Ni1481   1.895       .  S
O1459      H1482   0.966       .  S
C1460      O1477   1.267       .  A
C1460      C1661   1.478       .  S
O1461     Ni1480   1.909       .  S
O1462     Ni1480   1.913       .  S
O1462      C1464   1.268       .  A
Ni1463     O1466   1.920       .  S
Ni1463     O1468   1.913       .  S
C1464      C1645   1.459   1_655  S
O1465     Ni1481   1.895   1_455  S
O1465      C1471   1.273       .  A
C1467      C1650   1.454       .  S
O1468      C1470   1.266       .  A
O1469     Ni1480   1.915       .  S
C1470      C1641   1.478       .  S
C1471      C1658   1.451       .  S
H1472      O1473   0.966   1_565  S
O1474     Ni1475   1.937       .  S
Ni1475     O1479   1.883       .  S
Ni1475     O1477   1.885       .  S
O1476     Ni1481   1.929   1_565  S
C1478      C1653   1.454       .  S
O1483     Ni1491   1.907       .  S
O1486     Ni1491   1.934       .  S
O1487      C1496   1.287       .  A
O1488     Ni1492   1.941       .  S
O1488      C1495   1.285   1_655  A
O1489     Ni1492   1.888   1_455  S
O1489      C1494   1.280       .  A
O1490      C1493   1.276       .  A
C1494      C1657   1.456       .  S
C1495      C1633   1.502       .  S
C1496      C1637   1.501       .  S
O1497     Ni1505   1.886   1_554  S
O1498     Ni1505   1.894       .  S
O1499     Ni1505   1.952       .  S
O1501     Ni1506   1.960       .  S
O1501      C1510   1.289   1_565  A
O1502      C1509   1.284       .  A
O1503     Ni1506   1.899   1_545  S
O1504     Ni1506   1.909       .  S
O1504      C1507   1.278   1_565  A
C1507      C1654   1.454   1_545  S
C1509      C1625   1.514       .  S
O1511     Ni1519   1.958       .  S
O1513     Ni1519   1.926       .  S
O1514     Ni1519   1.926       .  S
O1515     Ni1520   1.915       .  S
O1515      C1524   1.279       .  A
O1516     Ni1520   1.910   1_455  S
O1516      C1523   1.281       .  A
O1517     Ni1520   1.948       .  S
O1517      C1522   1.287       .  A
O1518      C1521   1.293       .  A
C1521      C1621   1.531       .  S
C1524      C1646   1.461       .  S
O1525      C1535   1.278       .  A
O1526     Ni1533   1.891       .  S
O1526      C1536   1.280       .  A
O1527     Ni1533   1.926       .  S
O1528     Ni1533   1.931       .  S
O1529     Ni1534   1.937       .  S
O1529      C1538   1.285   1_655  A
O1530     Ni1534   1.948       .  S
O1530      C1537   1.286       .  A
O1531      C1536   1.277       .  A
O1532     Ni1534   1.900       .  S
O1532      C1535   1.278       .  A
C1535      C1613   1.455       .  S
C1536      C1609   1.457       .  S
C1537      C1638   1.499       .  S
C1538      C1634   1.501       .  S
O1539     Ni1545   1.936       .  S
O1539      C1560   1.271       .  A
O1540     Ni1563   1.882       .  S
O1540      C1549   1.263       .  A
O1541      H1564   0.967       .  S
O1541     Ni1545   1.919       .  S
O1541     Ni1563   1.899       .  S
O1541     Ni1557   1.878       .  S
C1542      O1559   1.257       .  A
C1542      O1551   1.270       .  A
C1542      C1606   1.456       .  S
O1543     Ni1562   1.922       .  S
O1543      C1549   1.270       .  A
O1544     Ni1562   1.900       .  S
O1544      C1546   1.271       .  A
Ni1545     O1548   1.936       .  S
Ni1545     O1550   1.903       .  S
C1546      O1556   1.279       .  A
C1546      C1597   1.468       .  S
O1547     Ni1563   1.889       .  S
O1547      C1553   1.266       .  A
O1548      C1553   1.276       .  A
C1549      C1610   1.454       .  S
O1550      C1552   1.265       .  A
O1551     Ni1562   1.933       .  S
C1552      O1558   1.270       .  A
C1552      C1593   1.463       .  S
C1553      C1601   1.461       .  S
H1554      O1555   0.967       .  S
O1555     Ni1563   1.908       .  S
O1555     Ni1557   1.901       .  S
O1555     Ni1562   1.922       .  S
O1556     Ni1557   1.947       .  S
Ni1557     O1561   1.872       .  S
Ni1557     O1559   1.881       .  S
O1558     Ni1563   1.929       .  S
C1560      O1561   1.261       .  A
C1560      C1614   1.463       .  S
O1565     Ni1573   1.905       .  S
O1565      C1575   1.275       .  A
O1566      C1576   1.281       .  A
O1567     Ni1573   1.960       .  S
O1568     Ni1573   1.973       .  S
O1568      C1578   1.291       .  A
O1569     Ni1574   1.957       .  S
O1570     Ni1574   1.968   1_556  S
O1570      C1577   1.290       .  A
O1571     Ni1574   1.903   1_556  S
O1571      C1576   1.275       .  A
O1572      C1575   1.282       .  A
C1575      C1602   1.459       .  S
C1576      C1605   1.456       .  S
C1577      C1617   1.528       .  S
C1578      C1622   1.532       .  S
O1579     Ni1587   1.951       .  S
O1579      C1589   1.287   1_565  A
O1580      C1590   1.286       .  A
O1581      C1591   1.281       .  A
O1582     Ni1587   1.899       .  S
O1582      C1592   1.279       .  A
O1583     Ni1588   1.925   1_565  S
O1583      C1592   1.281       .  A
O1584      C1591   1.278       .  A
O1585      C1590   1.287       .  A
O1586     Ni1588   1.954       .  S
O1586      C1589   1.288       .  A
Ni1587    Ni1588   2.385   1_565  S
C1589      C1626   1.516       .  S
C1590      C1630   1.508       .  S
C1591      C1594   1.470       .  S
C1592      C1598   1.471       .  S
C1593      C1594   1.343       .  D
C1593      H1595   1.087       .  S
C1594      H1596   1.087       .  S
C1597      C1598   1.345       .  D
C1597      H1599   1.087       .  S
C1598      H1600   1.086       .  S
C1601      C1602   1.337       .  D
C1601      H1603   1.088       .  S
C1602      H1604   1.087       .  S
C1605      C1606   1.334       .  D
C1605      H1607   1.087       .  S
C1606      H1608   1.088       .  S
C1609      C1610   1.337       .  D
C1609      H1611   1.086       .  S
C1610      H1612   1.090       .  S
C1613      C1614   1.342       .  D
C1613      H1615   1.088       .  S
C1614      H1616   1.086       .  S
C1617      C1618   1.366       .  D
C1618      H1620   1.086   1_556  S
C1621      C1622   1.367       .  D
C1622      H1624   1.086       .  S
C1625      C1626   1.359   1_565  D
C1625      H1627   1.086       .  S
C1629      C1630   1.358       .  D
C1629      H1631   1.086       .  S
C1633      C1634   1.355       .  D
C1634      H1636   1.086   1_455  S
C1637      C1638   1.355       .  D
C1637      H1639   1.086       .  S
C1641      C1642   1.344       .  D
C1645      C1646   1.338   1_455  D
C1649      C1650   1.336       .  D
C1653      C1654   1.341   1_545  D
C1653      H1655   1.087       .  S
C1657      C1658   1.335   1_565  D
C1658      H1660   1.090       .  S
C1661      C1662   1.351       .  D
C1662      H1664   1.087       .  S
