geometry optimzed in LAMMPS
_audit_creation_date              2020-12-01 
_audit_creation_method            'lammps2cif' 
_symmetry_space_group_name_H-M    'P1' 
_symmetry_Int_Tables_number       1 
_symmetry_cell_setting            triclinic 
loop_ 
_symmetry_equiv_pos_as_xyz 
  x,y,z 
_cell_length_a                    35.97772755 
_cell_length_b                    35.97620876223203 
_cell_length_c                    37.50605485243292 
_cell_angle_alpha                 89.99939863294512 
_cell_angle_beta                  89.87165065986188 
_cell_angle_gamma                 119.97584497772685 
loop_ 
_atom_site_label 
_atom_site_type_symbol 
_atom_site_fract_x 
_atom_site_fract_y 
_atom_site_fract_z 
_atom_site_charge 
O1          O  0.46319857  0.03609357  0.64060127    -0.54000
C2          C  0.05938275  0.06535721  0.71400028     0.78700
O3          O  0.46208699  0.42671649  0.69228840    -0.55100
C4          C  0.44037808  0.50581443  0.61940465     0.78600
C5          C  0.05960827  0.99427064  0.61925114     0.81000
Cd6        Cd  0.49987621  0.99992778  0.66673454     1.37500
O7          O  0.03651014  0.07277345  0.69281632    -0.54000
O8          O  0.05345279  0.02588982  0.61874752    -0.52800
C9          C  0.44015154  0.43460125  0.71424110     0.81000
O10         O  0.03771178  0.46449595  0.64124027    -0.55100
O11         O  0.05435229  0.02800745  0.71377974    -0.53600
O12         O  0.44545124  0.47351767  0.61964678    -0.53600
O13         O  0.44626732  0.47235780  0.71470326    -0.52800
C14         C  0.28449923  0.00089601  0.51884861     0.06100
C15         C  0.28419592  0.00000136  0.48130341     0.06100
C16         C  0.25062668  0.00038077  0.46274347    -0.14400
C17         C  0.21694207  0.00081349  0.48120816     0.06100
C18         C  0.21641932  0.00005497  0.51875739     0.06100
C19         C  0.25040866  0.00051601  0.53731487    -0.14400
H20         H  0.25031729  0.00055419  0.56623535     0.08100
H21         H  0.25070527  0.00031640  0.43382633     0.08100
O22         O  0.03637142  0.07260218  0.30724397    -0.54000
C23         C  0.06590006  0.50557974  0.38063326     0.78700
O24         O  0.42746306  0.46399870  0.35930971    -0.55100
C25         C  0.50623694  0.06498330  0.28584056     0.78600
C26         C  0.99475539  0.43425713  0.28598789     0.81000
Cd27       Cd  0.00049734  0.49967336  0.33332773     1.37500
O28         O  0.07346935  0.03563743  0.35907645    -0.54000
O29         O  0.02669069  0.47182746  0.28574700    -0.52800
C30         C  0.43516628  0.99408726  0.38084258     0.81000
O31         O  0.46474582  0.42659592  0.30767538    -0.55100
O32         O  0.02841413  0.47350360  0.38076325    -0.53600
O33         O  0.47418597  0.02748245  0.28592046    -0.53600
O34         O  0.47274722  0.02600286  0.38087664    -0.52800
C35         C  0.50022004  0.28333394  0.14782920     0.06100
C36         C  0.49970475  0.28309167  0.18538161     0.06100
C37         C  0.50026343  0.24954708  0.20390252    -0.14400
C38         C  0.50051639  0.21583547  0.18540075     0.06100
C39         C  0.49937923  0.21525241  0.14786184     0.06100
C40         C  0.49964793  0.24920967  0.12933422    -0.14400
H41         H  0.49941185  0.24907956  0.10041489     0.08100
H42         H  0.50049747  0.24967510  0.23282161     0.08100
O43         O  0.46342768  0.03617717  0.02601838    -0.54000
C44         C  0.43378520  0.43956678  0.95268429     0.78700
O45         O  0.07228078  0.03644446  0.97391685    -0.55100
C46         C  0.99355450  0.05862536  0.04744296     0.78600
C47         C  0.50509086  0.43939745  0.04720303     0.81000
Cd48       Cd  0.49925831  0.49906560  0.99991525     1.37500
O49         O  0.42623113  0.46204378  0.97427128    -0.54000
O50         O  0.47318175  0.44509570  0.04753201    -0.52800
C51         C  0.06453601  0.05880079  0.95237914     0.81000
O52         O  0.03503584  0.46168085  0.02544980    -0.55100
O53         O  0.47128763  0.44499486  0.95248658    -0.53600
O54         O  0.02557969  0.05311166  0.04736665    -0.53600
O55         O  0.02693414  0.05310603  0.95234352    -0.52800
C56         C  0.21524811  0.21634145  0.81448379     0.06100
C57         C  0.21551568  0.21572401  0.85202931     0.06100
C58         C  0.24905329  0.24964935  0.87061452    -0.14400
C59         C  0.28274056  0.28377050  0.85217586     0.06100
C60         C  0.28329902  0.28356264  0.81462655     0.06100
C61         C  0.24934187  0.25005608  0.79604280    -0.14400
H62         H  0.24946013  0.25020658  0.76712308     0.08100
H63         H  0.24894706  0.24948606  0.89953704     0.08100
C64         C  0.09706763  0.08996980  0.92932320    -0.14700
C65         C  0.12382543  0.11764088  0.91054357     0.09400
C66         C  0.15505234  0.15124746  0.88938078     0.11300
C67         C  0.18213315  0.18050603  0.87202290    -0.15500
C68         C  0.40115629  0.40858447  0.92972676    -0.14700
C69         C  0.37433002  0.38111183  0.91096959     0.09400
C70         C  0.34307028  0.34776089  0.88976552     0.11300
C71         C  0.31601866  0.31872685  0.87232061    -0.15500
C72         C  0.50182827  0.31834691  0.12772908    -0.14700
C73         C  0.50379930  0.34742029  0.11027248     0.09400
C74         C  0.50593095  0.38081536  0.08901641     0.11300
C75         C  0.50664638  0.40833665  0.07020662    -0.15500
C76         C  0.99745715  0.18006272  0.12781953    -0.14700
C77         C  0.99526033  0.15084335  0.11044007     0.09400
C78         C  0.99292185  0.11729996  0.08927188     0.11300
C79         C  0.99208516  0.08969822  0.07049571    -0.14300
C80         C  0.50772869  0.09754830  0.26280428    -0.14700
C81         C  0.50691177  0.12432887  0.24403378     0.09400
C82         C  0.50459638  0.15554519  0.22286088     0.11300
C83         C  0.50241851  0.18257144  0.20546840    -0.15500
C84         C  0.99323976  0.40167770  0.26296256    -0.14700
C85         C  0.99397823  0.37488788  0.24414710     0.09400
C86         C  0.99612587  0.34362725  0.22289769     0.11300
C87         C  0.99810130  0.31651611  0.20545611    -0.15500
C88         C  0.09849687  0.50720277  0.40363147    -0.14700
C89         C  0.12530867  0.50654916  0.42241601     0.09400
C90         C  0.15656764  0.50445958  0.44363970     0.11300
C91         C  0.18363215  0.00248252  0.46108548    -0.15500
C92         C  0.31757071  0.99816248  0.46128157    -0.14700
C93         C  0.34464008  0.99598203  0.44389374     0.09400
C94         C  0.37585610  0.99360389  0.42269807     0.11300
C95         C  0.40261504  0.99270034  0.40390067    -0.15500
C96         C  0.18123357  0.99826818  0.53878788    -0.14700
C97         C  0.15200580  0.99612187  0.55618901     0.09400
C98         C  0.11843167  0.99376934  0.57740075     0.11300
C99         C  0.09077753  0.99287670  0.59620426    -0.15500
C100        C  0.31951501  0.00263991  0.53896246    -0.14700
C101        C  0.34857947  0.50466188  0.55639761     0.09400
C102        C  0.38194398  0.50678158  0.57761125     0.11300
C103        C  0.40941293  0.50744394  0.59639468    -0.15500
C104        C  0.31849034  0.31697165  0.79462457    -0.14700
C105        C  0.34772852  0.34406654  0.77725379     0.09400
C106        C  0.38131672  0.37530088  0.75607492     0.11300
C107        C  0.40897933  0.40206107  0.73728813    -0.15500
C108        C  0.09035949  0.09797605  0.73697169    -0.14700
C109        C  0.11783830  0.12479840  0.75572576     0.09400
C110        C  0.15120653  0.15605217  0.77691584     0.11300
C111        C  0.18026202  0.18309085  0.79434744    -0.15500
O112        O  0.46319840  0.53609346  0.64060119    -0.54000
C113        C  0.05938274  0.56535723  0.71400034     0.78700
O114        O  0.46208705  0.92671643  0.69228841    -0.55100
C115        C  0.44037830  0.00581463  0.61940461     0.78600
C116        C  0.05960822  0.49427056  0.61925115     0.81000
Cd117      Cd  0.49987622  0.49992791  0.66673453     1.37500
O118        O  0.03651012  0.57277339  0.69281644    -0.54000
O119        O  0.05345286  0.52588985  0.61874745    -0.52800
C120        C  0.44015159  0.93460120  0.71424111     0.81000
O121        O  0.03771171  0.96449594  0.64124010    -0.55100
O122        O  0.05435223  0.52800750  0.71377970    -0.53600
O123        O  0.44545125  0.97351775  0.61964679    -0.53600
O124        O  0.44626719  0.97235771  0.71470311    -0.52800
C125        C  0.28449919  0.50089592  0.51884860     0.06100
C126        C  0.28419590  0.50000140  0.48130343     0.06100
C127        C  0.25062662  0.50038070  0.46274345    -0.14400
C128        C  0.21694213  0.50081350  0.48120816     0.06100
C129        C  0.21641939  0.50005503  0.51875737     0.06100
C130        C  0.25040867  0.50051591  0.53731483    -0.14400
H131        H  0.25031763  0.50055485  0.56623528     0.08100
H132        H  0.25070553  0.50031714  0.43382637     0.08100
O133        O  0.03637143  0.57260213  0.30724387    -0.54000
C134        C  0.06590016  0.00557992  0.38063320     0.78700
O135        O  0.42746319  0.96399876  0.35930974    -0.55100
C136        C  0.50623692  0.56498332  0.28584060     0.78600
C137        C  0.99475533  0.93425729  0.28598786     0.81000
Cd138      Cd  0.00049727  0.99967343  0.33332770     1.37500
O139        O  0.07346929  0.53563739  0.35907664    -0.54000
O140        O  0.02669070  0.97182765  0.28574707    -0.52800
C141        C  0.43516624  0.49408720  0.38084257     0.81000
O142        O  0.46474598  0.92659608  0.30767545    -0.55100
O143        O  0.02841422  0.97350396  0.38076325    -0.53600
O144        O  0.47418590  0.52748252  0.28592052    -0.53600
O145        O  0.47274722  0.52600275  0.38087668    -0.52800
C146        C  0.50021987  0.78333390  0.14782931     0.06100
C147        C  0.49970472  0.78309166  0.18538167     0.06100
C148        C  0.50026337  0.74954702  0.20390254    -0.14400
C149        C  0.50051652  0.71583556  0.18540069     0.06100
C150        C  0.49937927  0.71525251  0.14786183     0.06100
C151        C  0.49964785  0.74920973  0.12933419    -0.14400
H152        H  0.49941195  0.74907982  0.10041544     0.08100
H153        H  0.50049770  0.74967498  0.23282148     0.08100
O154        O  0.46342791  0.53617728  0.02601839    -0.54000
C155        C  0.43378509  0.93956682  0.95268432     0.78700
O156        O  0.07228077  0.53644442  0.97391678    -0.55100
C157        C  0.99355461  0.55862550  0.04744299     0.78600
C158        C  0.50509089  0.93939739  0.04720295     0.81000
Cd159      Cd  0.49925823  0.99906563  0.99991526     1.37500
O160        O  0.42623106  0.96204389  0.97427120    -0.54000
O161        O  0.47318180  0.94509562  0.04753197    -0.52800
C162        C  0.06453590  0.55880074  0.95237916     0.81000
O163        O  0.03503571  0.96168074  0.02544980    -0.55100
O164        O  0.47128755  0.94499492  0.95248670    -0.53600
O165        O  0.02557969  0.55311154  0.04736675    -0.53600
O166        O  0.02693395  0.55310594  0.95234345    -0.52800
C167        C  0.21524811  0.71634161  0.81448378     0.06100
C168        C  0.21551582  0.71572397  0.85202931     0.06100
C169        C  0.24905331  0.74964943  0.87061455    -0.14400
C170        C  0.28274055  0.78377060  0.85217586     0.06100
C171        C  0.28329908  0.78356276  0.81462658     0.06100
C172        C  0.24934200  0.75005622  0.79604283    -0.14400
H173        H  0.24946003  0.75020717  0.76712310     0.08100
H174        H  0.24894706  0.74948619  0.89953706     0.08100
C175        C  0.09706763  0.58996970  0.92932330    -0.14700
C176        C  0.12382538  0.61764081  0.91054363     0.09400
C177        C  0.15505245  0.65124742  0.88938079     0.11300
C178        C  0.18213325  0.68050606  0.87202291    -0.15500
C179        C  0.40115612  0.90858456  0.92972676    -0.14700
C180        C  0.37433005  0.88111188  0.91096952     0.09400
C181        C  0.34307019  0.84776101  0.88976549     0.11300
C182        C  0.31601874  0.81872690  0.87232057    -0.15500
C183        C  0.50182821  0.81834685  0.12772919    -0.14700
C184        C  0.50379930  0.84742023  0.11027254     0.09400
C185        C  0.50593103  0.88081535  0.08901638     0.11300
C186        C  0.50664636  0.90833656  0.07020652    -0.15500
C187        C  0.99745723  0.68006278  0.12781952    -0.14700
C188        C  0.99526055  0.65084349  0.11044005     0.09400
C189        C  0.99292198  0.61730013  0.08927190     0.11300
C190        C  0.99208508  0.58969830  0.07049575    -0.14300
C191        C  0.50772865  0.59754832  0.26280423    -0.14700
C192        C  0.50691173  0.62432890  0.24403371     0.09400
C193        C  0.50459644  0.65554523  0.22286078     0.11300
C194        C  0.50241842  0.68257135  0.20546825    -0.15500
C195        C  0.99323971  0.90167773  0.26296261    -0.14700
C196        C  0.99397838  0.87488800  0.24414710     0.09400
C197        C  0.99612581  0.84362728  0.22289762     0.11300
C198        C  0.99810137  0.81651613  0.20545616    -0.15500
C199        C  0.09849687  0.00720274  0.40363150    -0.14700
C200        C  0.12530866  0.00654912  0.42241602     0.09400
C201        C  0.15656752  0.00445942  0.44363964     0.11300
C202        C  0.18363222  0.50248254  0.46108551    -0.15500
C203        C  0.31757056  0.49816237  0.46128165    -0.14700
C204        C  0.34464003  0.49598206  0.44389381     0.09400
C205        C  0.37585611  0.49360391  0.42269807     0.11300
C206        C  0.40261498  0.49270025  0.40390062    -0.15500
C207        C  0.18123359  0.49826826  0.53878786    -0.14700
C208        C  0.15200583  0.49612193  0.55618902     0.09400
C209        C  0.11843170  0.49376935  0.57740076     0.11300
C210        C  0.09077758  0.49287667  0.59620432    -0.15500
C211        C  0.31951483  0.50263973  0.53896251    -0.14700
C212        C  0.34857966  0.00466209  0.55639762     0.09400
C213        C  0.38194409  0.00678174  0.57761134     0.11300
C214        C  0.40941305  0.00744405  0.59639472    -0.15500
C215        C  0.31849034  0.81697160  0.79462454    -0.14700
C216        C  0.34772857  0.84406653  0.77725384     0.09400
C217        C  0.38131676  0.87530070  0.75607492     0.11300
C218        C  0.40897933  0.90206098  0.73728810    -0.15500
C219        C  0.09035952  0.59797607  0.73697171    -0.14700
C220        C  0.11783827  0.62479839  0.75572576     0.09400
C221        C  0.15120657  0.65605215  0.77691575     0.11300
C222        C  0.18026202  0.68309077  0.79434740    -0.15500
O223        O  0.96319852  0.03609357  0.64060124    -0.54000
C224        C  0.55938278  0.06535723  0.71400028     0.78700
O225        O  0.96208711  0.42671658  0.69228839    -0.55100
C226        C  0.94037812  0.50581446  0.61940457     0.78600
C227        C  0.55960826  0.99427063  0.61925111     0.81000
Cd228      Cd  0.99987617  0.99992780  0.66673455     1.37500
O229        O  0.53651007  0.07277333  0.69281639    -0.54000
O230        O  0.55345278  0.02588979  0.61874748    -0.52800
C231        C  0.94015165  0.43460124  0.71424113     0.81000
O232        O  0.53771174  0.46449608  0.64124019    -0.55100
O233        O  0.55435236  0.02800751  0.71377969    -0.53600
O234        O  0.94545108  0.47351755  0.61964687    -0.53600
O235        O  0.94626725  0.47235771  0.71470316    -0.52800
C236        C  0.78449920  0.00089601  0.51884855     0.06100
C237        C  0.78419582  0.00000136  0.48130318     0.06100
C238        C  0.75062662  0.00038077  0.46274361    -0.14400
C239        C  0.71694212  0.00081349  0.48120795     0.06100
C240        C  0.71641938  0.00005498  0.51875734     0.06100
C241        C  0.75040869  0.00051601  0.53731477    -0.14400
H242        H  0.75031733  0.00055420  0.56623530     0.08100
H243        H  0.75070507  0.00031639  0.43382351     0.08100
O244        O  0.53637152  0.07260221  0.30724387    -0.54000
C245        C  0.56590011  0.50557972  0.38063318     0.78700
O246        O  0.92746306  0.46399863  0.35930982    -0.55100
C247        C  0.00623690  0.06498329  0.28584054     0.78600
C248        C  0.49475527  0.43425712  0.28598788     0.81000
Cd249      Cd  0.50049727  0.49967335  0.33332770     1.37500
O250        O  0.57346944  0.03563751  0.35907651    -0.54000
O251        O  0.52669060  0.47182744  0.28574705    -0.52800
C252        C  0.93516621  0.99408726  0.38084255     0.81000
O253        O  0.96474592  0.42659595  0.30767538    -0.55100
O254        O  0.52841411  0.47350377  0.38076328    -0.53600
O255        O  0.97418586  0.02748249  0.28592044    -0.53600
O256        O  0.97274714  0.02600287  0.38087663    -0.52800
C257        C  0.00021990  0.28333386  0.14782921     0.06100
C258        C  0.99970478  0.28309166  0.18538159     0.06100
C259        C  0.00026349  0.24954709  0.20390251    -0.14400
C260        C  0.00051653  0.21583555  0.18540074     0.06100
C261        C  0.99937930  0.21525248  0.14786186     0.06100
C262        C  0.99964788  0.24920965  0.12933416    -0.14400
H263        H  0.99941167  0.24907948  0.10041534     0.08100
H264        H  0.00049766  0.24967515  0.23282150     0.08100
O265        O  0.96342774  0.03617712  0.02601834    -0.54000
C266        C  0.93378512  0.43956678  0.95268429     0.78700
O267        O  0.57228065  0.03644446  0.97391685    -0.55100
C268        C  0.49355454  0.05862538  0.04744297     0.78600
C269        C  0.00509101  0.43939749  0.04720301     0.81000
Cd270      Cd  0.99925826  0.49906560  0.99991525     1.37500
O271        O  0.92623102  0.46204374  0.97427127    -0.54000
O272        O  0.97318188  0.44509568  0.04753201    -0.52800
C273        C  0.56453593  0.05880079  0.95237914     0.81000
O274        O  0.53503573  0.46168080  0.02544985    -0.55100
O275        O  0.97128758  0.44499489  0.95248662    -0.53600
O276        O  0.52557976  0.05311162  0.04736665    -0.53600
O277        O  0.52693407  0.05310607  0.95234349    -0.52800
C278        C  0.71524812  0.21634148  0.81448376     0.06100
C279        C  0.71551566  0.21572401  0.85202929     0.06100
C280        C  0.74905325  0.24964935  0.87061451    -0.14400
C281        C  0.78274057  0.28377052  0.85217586     0.06100
C282        C  0.78329905  0.28356270  0.81462656     0.06100
C283        C  0.74934192  0.25005617  0.79604279    -0.14400
H284        H  0.74946008  0.25020697  0.76712306     0.08100
H285        H  0.74894710  0.24948582  0.89953703     0.08100
C286        C  0.59706760  0.08996976  0.92932323    -0.14700
C287        C  0.62382534  0.11764086  0.91054358     0.09400
C288        C  0.65505235  0.15124745  0.88938079     0.11300
C289        C  0.68213310  0.18050607  0.87202291    -0.15500
C290        C  0.90115620  0.40858445  0.92972676    -0.14700
C291        C  0.87433010  0.38111176  0.91096954     0.09400
C292        C  0.84307022  0.34776090  0.88976553     0.11300
C293        C  0.81601871  0.31872685  0.87232059    -0.15500
C294        C  0.00182820  0.31834686  0.12772910    -0.14700
C295        C  0.00379928  0.34742028  0.11027250     0.09400
C296        C  0.00593105  0.38081540  0.08901639     0.11300
C297        C  0.00664650  0.40833668  0.07020659    -0.15500
C298        C  0.49745711  0.18006264  0.12781960    -0.14700
C299        C  0.49526031  0.15084333  0.11044009     0.09400
C300        C  0.49292194  0.11730004  0.08927192     0.11300
C301        C  0.49208515  0.08969827  0.07049574    -0.14300
C302        C  0.00772864  0.09754829  0.26280424    -0.14700
C303        C  0.00691174  0.12432888  0.24403374     0.09400
C304        C  0.00459646  0.15554523  0.22286084     0.11300
C305        C  0.00241850  0.18257142  0.20546836    -0.15500
C306        C  0.49323965  0.40167766  0.26296261    -0.14700
C307        C  0.49397831  0.37488792  0.24414713     0.09400
C308        C  0.49612572  0.34362722  0.22289765     0.11300
C309        C  0.49810137  0.31651617  0.20545610    -0.15500
C310        C  0.59849689  0.50720278  0.40363152    -0.14700
C311        C  0.62530869  0.50654915  0.42241603     0.09400
C312        C  0.65656762  0.50445958  0.44363966     0.11300
C313        C  0.68363212  0.00248251  0.46108553    -0.15500
C314        C  0.81757061  0.99816249  0.46128161    -0.14700
C315        C  0.84464001  0.99598204  0.44389382     0.09400
C316        C  0.87585607  0.99360389  0.42269810     0.11300
C317        C  0.90261498  0.99270033  0.40390063    -0.15500
C318        C  0.68123358  0.99826818  0.53878789    -0.14700
C319        C  0.65200579  0.99612186  0.55618904     0.09400
C320        C  0.61843168  0.99376935  0.57740078     0.11300
C321        C  0.59077760  0.99287680  0.59620429    -0.15500
C322        C  0.81951492  0.00263991  0.53896253    -0.14700
C323        C  0.84857957  0.50466188  0.55639761     0.09400
C324        C  0.88194398  0.50678161  0.57761133     0.11300
C325        C  0.90941292  0.50744399  0.59639475    -0.15500
C326        C  0.81849036  0.31697162  0.79462456    -0.14700
C327        C  0.84772862  0.34406645  0.77725383     0.09400
C328        C  0.88131683  0.37530081  0.75607497     0.11300
C329        C  0.90897939  0.40206102  0.73728813    -0.15500
C330        C  0.59035943  0.09797610  0.73697173    -0.14700
C331        C  0.61783822  0.12479844  0.75572578     0.09400
C332        C  0.65120653  0.15605212  0.77691582     0.11300
C333        C  0.68026193  0.18309084  0.79434745    -0.15500
O334        O  0.96319835  0.53609347  0.64060116    -0.54000
C335        C  0.55938276  0.56535719  0.71400033     0.78700
O336        O  0.96208696  0.92671635  0.69228841    -0.55100
C337        C  0.94037821  0.00581463  0.61940461     0.78600
C338        C  0.55960826  0.49427068  0.61925110     0.81000
Cd339      Cd  0.99987619  0.49992788  0.66673451     1.37500
O340        O  0.53651024  0.57277346  0.69281634    -0.54000
O341        O  0.55345290  0.52588993  0.61874748    -0.52800
C342        C  0.94015153  0.93460120  0.71424110     0.81000
O343        O  0.53771183  0.96449601  0.64124016    -0.55100
O344        O  0.55435225  0.52800743  0.71377975    -0.53600
O345        O  0.94545122  0.97351779  0.61964678    -0.53600
O346        O  0.94626724  0.97235778  0.71470324    -0.52800
C347        C  0.78449919  0.50089591  0.51884862     0.06100
C348        C  0.78419585  0.50000128  0.48130343     0.06100
C349        C  0.75062664  0.50038068  0.46274347    -0.14400
C350        C  0.71694210  0.50081352  0.48120816     0.06100
C351        C  0.71641935  0.50005503  0.51875740     0.06100
C352        C  0.75040863  0.50051592  0.53731487    -0.14400
H353        H  0.75031765  0.50055486  0.56623536     0.08100
H354        H  0.75070566  0.50031706  0.43382634     0.08100
O355        O  0.53637144  0.57260216  0.30724401    -0.54000
C356        C  0.56590024  0.00557992  0.38063316     0.78700
O357        O  0.92746309  0.96399875  0.35930971    -0.55100
C358        C  0.00623684  0.56498333  0.28584063     0.78600
C359        C  0.49475537  0.93425729  0.28598784     0.81000
Cd360      Cd  0.50049740  0.99967344  0.33332770     1.37500
O361        O  0.57346929  0.53563726  0.35907649    -0.54000
O362        O  0.52669079  0.97182758  0.28574708    -0.52800
C363        C  0.93516620  0.49408721  0.38084254     0.81000
O364        O  0.96474588  0.92659603  0.30767542    -0.55100
O365        O  0.52841429  0.97350392  0.38076322    -0.53600
O366        O  0.97418590  0.52748249  0.28592059    -0.53600
O367        O  0.97274718  0.52600276  0.38087668    -0.52800
C368        C  0.00022001  0.78333396  0.14782929     0.06100
C369        C  0.99970465  0.78309165  0.18538163     0.06100
C370        C  0.00026329  0.74954702  0.20390254    -0.14400
C371        C  0.00051639  0.71583549  0.18540071     0.06100
C372        C  0.99937932  0.71525249  0.14786186     0.06100
C373        C  0.99964794  0.74920976  0.12933420    -0.14400
H374        H  0.99941231  0.74907998  0.10041552     0.08100
H375        H  0.00049708  0.74967480  0.23282139     0.08100
O376        O  0.96342782  0.53617730  0.02601841    -0.54000
C377        C  0.93378523  0.93956681  0.95268432     0.78700
O378        O  0.57228077  0.53644438  0.97391679    -0.55100
C379        C  0.49355465  0.55862551  0.04744300     0.78600
C380        C  0.00509083  0.93939735  0.04720297     0.81000
Cd381      Cd  0.99925833  0.99906562  0.99991526     1.37500
O382        O  0.92623123  0.96204393  0.97427120    -0.54000
O383        O  0.97318173  0.94509557  0.04753203    -0.52800
C384        C  0.56453598  0.55880073  0.95237916     0.81000
O385        O  0.53503573  0.96168078  0.02544977    -0.55100
O386        O  0.97128766  0.94499489  0.95248666    -0.53600
O387        O  0.52557974  0.55311164  0.04736681    -0.53600
O388        O  0.52693410  0.55310593  0.95234349    -0.52800
C389        C  0.71524816  0.71634156  0.81448378     0.06100
C390        C  0.71551575  0.71572403  0.85202931     0.06100
C391        C  0.74905331  0.74964942  0.87061455    -0.14400
C392        C  0.78274058  0.78377054  0.85217588     0.06100
C393        C  0.78329906  0.78356274  0.81462659     0.06100
C394        C  0.74934201  0.75005618  0.79604284    -0.14400
H395        H  0.74946028  0.75020698  0.76712311     0.08100
H396        H  0.74894700  0.74948631  0.89953703     0.08100
C397        C  0.59706756  0.58996972  0.92932328    -0.14700
C398        C  0.62382536  0.61764081  0.91054363     0.09400
C399        C  0.65505237  0.65124746  0.88938077     0.11300
C400        C  0.68213323  0.68050607  0.87202289    -0.15500
C401        C  0.90115627  0.90858457  0.92972675    -0.14700
C402        C  0.87433002  0.88111193  0.91096956     0.09400
C403        C  0.84307030  0.84776097  0.88976548     0.11300
C404        C  0.81601867  0.81872692  0.87232060    -0.15500
C405        C  0.00182835  0.81834690  0.12772915    -0.14700
C406        C  0.00379941  0.84742027  0.11027251     0.09400
C407        C  0.00593114  0.88081540  0.08901635     0.11300
C408        C  0.00664633  0.90833656  0.07020653    -0.15500
C409        C  0.49745716  0.68006276  0.12781948    -0.14700
C410        C  0.49526034  0.65084340  0.11044000     0.09400
C411        C  0.49292181  0.61730005  0.08927184     0.11300
C412        C  0.49208514  0.58969828  0.07049575    -0.14300
C413        C  0.00772863  0.59754834  0.26280426    -0.14700
C414        C  0.00691170  0.62432890  0.24403374     0.09400
C415        C  0.00459629  0.65554518  0.22286082     0.11300
C416        C  0.00241836  0.68257133  0.20546827    -0.15500
C417        C  0.49323981  0.90167775  0.26296259    -0.14700
C418        C  0.49397837  0.87488798  0.24414707     0.09400
C419        C  0.49612592  0.84362731  0.22289765     0.11300
C420        C  0.49810138  0.81651612  0.20545621    -0.15500
C421        C  0.59849689  0.00720285  0.40363149    -0.14700
C422        C  0.62530866  0.00654914  0.42241599     0.09400
C423        C  0.65656746  0.00445941  0.44363969     0.11300
C424        C  0.68363219  0.50248256  0.46108549    -0.15500
C425        C  0.81757059  0.49816233  0.46128162    -0.14700
C426        C  0.84463996  0.49598188  0.44389373     0.09400
C427        C  0.87585611  0.49360389  0.42269797     0.11300
C428        C  0.90261496  0.49270018  0.40390056    -0.15500
C429        C  0.68123358  0.49826825  0.53878791    -0.14700
C430        C  0.65200584  0.49612192  0.55618905     0.09400
C431        C  0.61843168  0.49376936  0.57740069     0.11300
C432        C  0.59077758  0.49287676  0.59620422    -0.15500
C433        C  0.81951493  0.50263973  0.53896247    -0.14700
C434        C  0.84857962  0.00466208  0.55639761     0.09400
C435        C  0.88194406  0.00678175  0.57761128     0.11300
C436        C  0.90941302  0.00744409  0.59639468    -0.15500
C437        C  0.81849036  0.81697160  0.79462456    -0.14700
C438        C  0.84772851  0.84406659  0.77725381     0.09400
C439        C  0.88131670  0.87530075  0.75607488     0.11300
C440        C  0.90897934  0.90206101  0.73728811    -0.15500
C441        C  0.59035955  0.59797605  0.73697171    -0.14700
C442        C  0.61783830  0.62479839  0.75572577     0.09400
C443        C  0.65120653  0.65605224  0.77691580     0.11300
C444        C  0.68026202  0.68309087  0.79434741    -0.15500
loop_ 
_geom_bond_atom_site_label_1 
_geom_bond_atom_site_label_2 
_geom_bond_distance 
_geom_bond_site_symmetry_2 
_ccdc_geom_bond_type 
O1           Cd6   2.473   1_545  S
O1          C115   1.266       .  A
C2           O11   1.263       .  A
C2            O7   1.266       .  A
C2          C108   1.435       .  S
O3         Cd117   2.474       .  S
O3            C9   1.266       .  A
C4           O12   1.263       .  A
C4          O112   1.266       .  A
C4          C103   1.435       .  S
C5            O8   1.263   1_565  A
C5          O121   1.266       .  A
C5           C99   1.435       .  S
Cd6         O114   2.474       .  S
Cd6         O124   2.452       .  S
Cd6         O123   2.452       .  S
Cd6         O233   2.452   1_565  S
Cd6         O229   2.473   1_565  S
Cd6         O343   2.474       .  S
Cd6         O230   2.452   1_565  S
O7         Cd228   2.473   1_445  S
O8         Cd228   2.452   1_445  S
C9           O13   1.263       .  A
C9          C107   1.435       .  S
O10        Cd339   2.474   1_455  S
O10         C116   1.266       .  A
O11        Cd228   2.452   1_445  S
O12        Cd117   2.452       .  S
O13        Cd117   2.452       .  S
C14         C100   1.444       .  S
C14          C15   1.408       .  A
C14          C19   1.401       .  A
C15          C92   1.444   1_545  S
C15          C16   1.401       .  A
C16          C17   1.401       .  A
C16          H21   1.085       .  S
C17          C91   1.444       .  S
C17          C18   1.408       .  A
C18          C96   1.444   1_545  S
C18          C19   1.401       .  A
C19          H20   1.085       .  S
O22        Cd138   2.473   1_545  S
O22         C247   1.266       .  A
C23          O32   1.263       .  A
C23         O139   1.266       .  A
C23          C88   1.435       .  S
O24        Cd249   2.474       .  S
O24         C141   1.266       .  A
C25          O33   1.263       .  A
C25         O244   1.266       .  A
C25          C80   1.435       .  S
C26          O29   1.263   1_655  A
C26         O253   1.266       .  A
C26          C84   1.435       .  S
Cd27         O32   2.452       .  S
Cd27         O29   2.452       .  S
Cd27        O133   2.473       .  S
Cd27        O246   2.474   1_455  S
Cd27        O367   2.452   1_455  S
Cd27        O366   2.452   1_455  S
Cd27        O139   2.473       .  S
Cd27        O253   2.474   1_455  S
O28        Cd138   2.473   1_545  S
O28         C134   1.266       .  A
C30          O34   1.263   1_565  A
C30         O135   1.266       .  A
C30          C95   1.435       .  S
O31        Cd249   2.474       .  S
O31         C248   1.266       .  A
O33        Cd360   2.452   1_545  S
O34        Cd360   2.452   1_545  S
C35          C72   1.444       .  S
C35          C36   1.408       .  A
C35          C40   1.401       .  A
C36         C309   1.444       .  S
C36          C37   1.401       .  A
C37          C38   1.401       .  A
C37          H42   1.085       .  S
C38          C83   1.444       .  S
C38          C39   1.408       .  A
C39         C298   1.444       .  S
C39          C40   1.401       .  A
C40          H41   1.085       .  S
O43        Cd159   2.473   1_544  S
O43         C268   1.266       .  A
C44          O53   1.263       .  A
C44          O49   1.266       .  A
C44          C68   1.435       .  S
O45        Cd381   2.474   1_445  S
O45          C51   1.266       .  A
C46          O54   1.263   1_655  A
C46         O265   1.266       .  A
C46          C79   1.435       .  S
C47          O50   1.263       .  A
C47         O274   1.266       .  A
C47          C75   1.435       .  S
Cd48         O53   2.452       .  S
Cd48         O49   2.473       .  S
Cd48         O50   2.452   1_556  S
Cd48        O154   2.473   1_556  S
Cd48        O378   2.474       .  S
Cd48        O388   2.452       .  S
Cd48        O387   2.452   1_556  S
Cd48        O274   2.474   1_556  S
C51          O55   1.263       .  A
C51          C64   1.435       .  S
O52        Cd270   2.474   1_454  S
O52         C269   1.266       .  A
O54        Cd381   2.452   1_444  S
O55        Cd381   2.452   1_445  S
C56         C111   1.444       .  S
C56          C57   1.408       .  A
C56          C61   1.401       .  A
C57          C67   1.444       .  S
C57          C58   1.401       .  A
C58          C59   1.401       .  A
C58          H63   1.085       .  S
C59          C71   1.444       .  S
C59          C60   1.408       .  A
C60         C104   1.444       .  S
C60          C61   1.401       .  A
C61          H62   1.085       .  S
C64          C65   1.205       .  T
C65          C66   1.412       .  S
C66          C67   1.206       .  T
C68          C69   1.205       .  T
C69          C70   1.412       .  S
C70          C71   1.206       .  T
C72          C73   1.206       .  T
C73          C74   1.412       .  S
C74          C75   1.205       .  T
C76         C261   1.444       .  S
C76          C77   1.206       .  T
C77          C78   1.412       .  S
C78          C79   1.205       .  T
C80          C81   1.205       .  T
C81          C82   1.412       .  S
C82          C83   1.206       .  T
C84          C85   1.205       .  T
C85          C86   1.412       .  S
C86          C87   1.206       .  T
C87         C258   1.444       .  S
C88          C89   1.205       .  T
C89          C90   1.412       .  S
C90         C202   1.206       .  T
C91         C201   1.206       .  T
C92          C93   1.206       .  T
C93          C94   1.412       .  S
C94          C95   1.205       .  T
C96          C97   1.206       .  T
C97          C98   1.412       .  S
C98          C99   1.205       .  T
C100        C212   1.206       .  T
C101        C211   1.206       .  T
C101        C102   1.412       .  S
C102        C103   1.205       .  T
C104        C105   1.206       .  T
C105        C106   1.412       .  S
C106        C107   1.206       .  T
C108        C109   1.205       .  T
C109        C110   1.412       .  S
C110        C111   1.206       .  T
O112       Cd117   2.473       .  S
C113        O122   1.263       .  A
C113        O118   1.266       .  A
C113        C219   1.435       .  S
O114        C120   1.266       .  A
C115        O123   1.263   1_545  A
C115        C214   1.435       .  S
C116        O119   1.263       .  A
C116        C210   1.435       .  S
Cd117       O344   2.452       .  S
Cd117       O340   2.473       .  S
Cd117       O232   2.474       .  S
Cd117       O341   2.452       .  S
O118       Cd339   2.473   1_455  S
O119       Cd339   2.452   1_455  S
C120        O124   1.263       .  A
C120        C218   1.435       .  S
O121       Cd228   2.474   1_455  S
O122       Cd339   2.452   1_455  S
C125        C211   1.444       .  S
C125        C126   1.408       .  A
C125        C130   1.401       .  A
C126        C203   1.444       .  S
C126        C127   1.401       .  A
C127        C128   1.401       .  A
C127        H132   1.085       .  S
C128        C202   1.444       .  S
C128        C129   1.408       .  A
C129        C207   1.444       .  S
C129        C130   1.401       .  A
C130        H131   1.085       .  S
O133        C358   1.266       .  A
C134        O143   1.263   1_545  A
C134        C199   1.435       .  S
O135       Cd360   2.474       .  S
C136        O355   1.266       .  A
C136        O144   1.263       .  A
C136        C191   1.435       .  S
C137        O364   1.266       .  A
C137        O140   1.263   1_655  A
C137        C195   1.435       .  S
Cd138       O357   2.474   1_455  S
Cd138       O256   2.452   1_465  S
Cd138       O255   2.452   1_465  S
Cd138       O143   2.452       .  S
Cd138       O364   2.474   1_455  S
Cd138       O140   2.452       .  S
C141        O145   1.263       .  A
C141        C206   1.435       .  S
O142       Cd360   2.474       .  S
O142        C359   1.266       .  A
O144       Cd249   2.452       .  S
O145       Cd249   2.452       .  S
C146        C183   1.444       .  S
C146        C147   1.408       .  A
C146        C151   1.401       .  A
C147        C420   1.444       .  S
C147        C148   1.401       .  A
C148        C149   1.401       .  A
C148        H153   1.085       .  S
C149        C194   1.444       .  S
C149        C150   1.408       .  A
C150        C409   1.444       .  S
C150        C151   1.401       .  A
C151        H152   1.085       .  S
O154        C379   1.266       .  A
C155        O164   1.263       .  A
C155        O160   1.266       .  A
C155        C179   1.435       .  S
O156       Cd270   2.474   1_455  S
O156        C162   1.266       .  A
C157        O376   1.266       .  A
C157        O165   1.263   1_655  A
C157        C190   1.435       .  S
C158        O385   1.266       .  A
C158        O161   1.263       .  A
C158        C186   1.435       .  S
Cd159       O267   2.474   1_565  S
Cd159       O277   2.452   1_565  S
Cd159       O276   2.452   1_566  S
Cd159       O164   2.452       .  S
Cd159       O160   2.473       .  S
Cd159       O385   2.474   1_556  S
Cd159       O161   2.452   1_556  S
C162        O166   1.263       .  A
C162        C175   1.435       .  S
O163       Cd381   2.474   1_454  S
O163        C380   1.266       .  A
O165       Cd270   2.452   1_454  S
O166       Cd270   2.452   1_455  S
C167        C222   1.444       .  S
C167        C168   1.408       .  A
C167        C172   1.401       .  A
C168        C178   1.444       .  S
C168        C169   1.401       .  A
C169        C170   1.401       .  A
C169        H174   1.085       .  S
C170        C182   1.444       .  S
C170        C171   1.408       .  A
C171        C215   1.444       .  S
C171        C172   1.401       .  A
C172        H173   1.085       .  S
C175        C176   1.205       .  T
C176        C177   1.412       .  S
C177        C178   1.206       .  T
C179        C180   1.205       .  T
C180        C181   1.412       .  S
C181        C182   1.206       .  T
C183        C184   1.206       .  T
C184        C185   1.412       .  S
C185        C186   1.205       .  T
C187        C372   1.444       .  S
C187        C188   1.206       .  T
C188        C189   1.412       .  S
C189        C190   1.205       .  T
C191        C192   1.205       .  T
C192        C193   1.412       .  S
C193        C194   1.206       .  T
C195        C196   1.205       .  T
C196        C197   1.412       .  S
C197        C198   1.206       .  T
C198        C369   1.444       .  S
C199        C200   1.205       .  T
C200        C201   1.412       .  S
C203        C204   1.206       .  T
C204        C205   1.412       .  S
C205        C206   1.205       .  T
C207        C208   1.206       .  T
C208        C209   1.412       .  S
C209        C210   1.205       .  T
C212        C213   1.412       .  S
C213        C214   1.205       .  T
C215        C216   1.206       .  T
C216        C217   1.412       .  S
C217        C218   1.206       .  T
C219        C220   1.205       .  T
C220        C221   1.412       .  S
C221        C222   1.206       .  T
O223       Cd228   2.473   1_545  S
O223        C337   1.266       .  A
C224        O233   1.263       .  A
C224        O229   1.266       .  A
C224        C330   1.435       .  S
O225       Cd339   2.474       .  S
O225        C231   1.266       .  A
C226        O334   1.266       .  A
C226        O234   1.263       .  A
C226        C325   1.435       .  S
C227        O343   1.266       .  A
C227        O230   1.263   1_565  A
C227        C321   1.435       .  S
Cd228       O336   2.474       .  S
Cd228       O346   2.452       .  S
Cd228       O345   2.452       .  S
C231        O235   1.263       .  A
C231        C329   1.435       .  S
O232        C338   1.266       .  A
O234       Cd339   2.452       .  S
O235       Cd339   2.452       .  S
C236        C322   1.444       .  S
C236        C237   1.408       .  A
C236        C241   1.401       .  A
C237        C314   1.444   1_545  S
C237        C238   1.401       .  A
C238        C239   1.401       .  A
C238        H243   1.085       .  S
C239        C313   1.444       .  S
C239        C240   1.408       .  A
C240        C318   1.444   1_545  S
C240        C241   1.401       .  A
C241        H242   1.085       .  S
O244       Cd360   2.473   1_545  S
C245        O254   1.263       .  A
C245        O361   1.266       .  A
C245        C310   1.435       .  S
O246        C363   1.266       .  A
C247        O255   1.263   1_455  A
C247        C302   1.435       .  S
C248        O251   1.263       .  A
C248        C306   1.435       .  S
Cd249       O355   2.473       .  S
Cd249       O254   2.452       .  S
Cd249       O361   2.473       .  S
Cd249       O251   2.452       .  S
O250       Cd360   2.473   1_545  S
O250        C356   1.266       .  A
C252        O357   1.266       .  A
C252        O256   1.263   1_565  A
C252        C317   1.435       .  S
C257        C294   1.444       .  S
C257        C258   1.408   1_455  A
C257        C262   1.401   1_455  A
C258        C259   1.401   1_655  A
C259        C260   1.401       .  A
C259        H264   1.085       .  S
C260        C305   1.444       .  S
C260        C261   1.408   1_455  A
C261        C262   1.401       .  A
C262        H263   1.085       .  S
O265       Cd381   2.473   1_544  S
C266        O275   1.263       .  A
C266        O271   1.266       .  A
C266        C290   1.435       .  S
O267        C273   1.266       .  A
C268        O276   1.263       .  A
C268        C301   1.435       .  S
C269        O272   1.263   1_455  A
C269        C297   1.435       .  S
Cd270       O376   2.473   1_556  S
Cd270       O275   2.452       .  S
Cd270       O271   2.473       .  S
Cd270       O272   2.452   1_556  S
C273        O277   1.263       .  A
C273        C286   1.435       .  S
C278        C333   1.444       .  S
C278        C279   1.408       .  A
C278        C283   1.401       .  A
C279        C289   1.444       .  S
C279        C280   1.401       .  A
C280        C281   1.401       .  A
C280        H285   1.085       .  S
C281        C293   1.444       .  S
C281        C282   1.408       .  A
C282        C326   1.444       .  S
C282        C283   1.401       .  A
C283        H284   1.085       .  S
C286        C287   1.205       .  T
C287        C288   1.412       .  S
C288        C289   1.206       .  T
C290        C291   1.205       .  T
C291        C292   1.412       .  S
C292        C293   1.206       .  T
C294        C295   1.206       .  T
C295        C296   1.412       .  S
C296        C297   1.205       .  T
C298        C299   1.206       .  T
C299        C300   1.412       .  S
C300        C301   1.205       .  T
C302        C303   1.205       .  T
C303        C304   1.412       .  S
C304        C305   1.206       .  T
C306        C307   1.205       .  T
C307        C308   1.412       .  S
C308        C309   1.206       .  T
C310        C311   1.205       .  T
C311        C312   1.412       .  S
C312        C424   1.206       .  T
C313        C423   1.206       .  T
C314        C315   1.206       .  T
C315        C316   1.412       .  S
C316        C317   1.205       .  T
C318        C319   1.206       .  T
C319        C320   1.412       .  S
C320        C321   1.205       .  T
C322        C434   1.206       .  T
C323        C433   1.206       .  T
C323        C324   1.412       .  S
C324        C325   1.205       .  T
C326        C327   1.206       .  T
C327        C328   1.412       .  S
C328        C329   1.206       .  T
C330        C331   1.205       .  T
C331        C332   1.412       .  S
C332        C333   1.206       .  T
O334       Cd339   2.473       .  S
C335        O344   1.263       .  A
C335        O340   1.266       .  A
C335        C441   1.435       .  S
O336        C342   1.266       .  A
C337        O345   1.263   1_545  A
C337        C436   1.435       .  S
C338        O341   1.263       .  A
C338        C432   1.435       .  S
C342        O346   1.263       .  A
C342        C440   1.435       .  S
C347        C433   1.444       .  S
C347        C348   1.408       .  A
C347        C352   1.401       .  A
C348        C425   1.444       .  S
C348        C349   1.401       .  A
C349        C350   1.401       .  A
C349        H354   1.085       .  S
C350        C424   1.444       .  S
C350        C351   1.408       .  A
C351        C429   1.444       .  S
C351        C352   1.401       .  A
C352        H353   1.085       .  S
C356        O365   1.263   1_545  A
C356        C421   1.435       .  S
C358        O366   1.263   1_455  A
C358        C413   1.435       .  S
C359        O362   1.263       .  A
C359        C417   1.435       .  S
Cd360       O365   2.452       .  S
Cd360       O362   2.452       .  S
C363        O367   1.263       .  A
C363        C428   1.435       .  S
C368        C405   1.444       .  S
C368        C369   1.408   1_455  A
C368        C373   1.401   1_455  A
C369        C370   1.401   1_655  A
C370        C371   1.401       .  A
C370        H375   1.085       .  S
C371        C416   1.444       .  S
C371        C372   1.408   1_455  A
C372        C373   1.401       .  A
C373        H374   1.085       .  S
C377        O386   1.263       .  A
C377        O382   1.266       .  A
C377        C401   1.435       .  S
O378        C384   1.266       .  A
C379        O387   1.263       .  A
C379        C412   1.435       .  S
C380        O383   1.263   1_455  A
C380        C408   1.435       .  S
Cd381       O386   2.452       .  S
Cd381       O382   2.473       .  S
Cd381       O383   2.452   1_556  S
C384        O388   1.263       .  A
C384        C397   1.435       .  S
C389        C444   1.444       .  S
C389        C390   1.408       .  A
C389        C394   1.401       .  A
C390        C400   1.444       .  S
C390        C391   1.401       .  A
C391        C392   1.401       .  A
C391        H396   1.085       .  S
C392        C404   1.444       .  S
C392        C393   1.408       .  A
C393        C437   1.444       .  S
C393        C394   1.401       .  A
C394        H395   1.085       .  S
C397        C398   1.205       .  T
C398        C399   1.412       .  S
C399        C400   1.206       .  T
C401        C402   1.205       .  T
C402        C403   1.412       .  S
C403        C404   1.206       .  T
C405        C406   1.206       .  T
C406        C407   1.412       .  S
C407        C408   1.205       .  T
C409        C410   1.206       .  T
C410        C411   1.412       .  S
C411        C412   1.205       .  T
C413        C414   1.205       .  T
C414        C415   1.412       .  S
C415        C416   1.206       .  T
C417        C418   1.205       .  T
C418        C419   1.412       .  S
C419        C420   1.206       .  T
C421        C422   1.205       .  T
C422        C423   1.412       .  S
C425        C426   1.206       .  T
C426        C427   1.412       .  S
C427        C428   1.205       .  T
C429        C430   1.206       .  T
C430        C431   1.412       .  S
C431        C432   1.205       .  T
C434        C435   1.412       .  S
C435        C436   1.205       .  T
C437        C438   1.206       .  T
C438        C439   1.412       .  S
C439        C440   1.206       .  T
C441        C442   1.205       .  T
C442        C443   1.412       .  S
C443        C444   1.206       .  T
