geometry optimzed in LAMMPS
_audit_creation_date              2020-11-30 
_audit_creation_method            'lammps2cif' 
_symmetry_space_group_name_H-M    'P1' 
_symmetry_Int_Tables_number       1 
_symmetry_cell_setting            triclinic 
loop_ 
_symmetry_equiv_pos_as_xyz 
  x,y,z 
_cell_length_a                    50.51750917 
_cell_length_b                    50.29353878329733 
_cell_length_c                    33.03695582593946 
_cell_angle_alpha                 90.23643620504916 
_cell_angle_beta                  90.15326702282204 
_cell_angle_gamma                 90.0023774537484 
loop_ 
_atom_site_label 
_atom_site_type_symbol 
_atom_site_fract_x 
_atom_site_fract_y 
_atom_site_fract_z 
_atom_site_charge 
O1          O  0.24516272  0.20291173  0.37634295    -0.86700
O2          O  0.24748910  0.20393068  0.60978436    -0.86800
O3          O  0.28977725  0.17555310  0.48633101    -0.88500
O4          O  0.20579131  0.17303690  0.49162403    -0.87300
O5          O  0.17269339  0.20396589  0.49134024    -0.86800
O6          O  0.32097138  0.20848693  0.48448940    -0.88200
O7          O  0.24758080  0.17351112  0.55756103    -0.86700
O8          O  0.24632318  0.17445142  0.43019277    -0.86300
Zr9        Zr  0.24724626  0.19720966  0.49390533     2.84300
O10         O  0.22007087  0.22230310  0.53638912    -1.08300
O11         O  0.27245473  0.22394385  0.45106858    -1.09000
C12         C  0.24521630  0.17900635  0.39200633     1.06400
C13         C  0.24769026  0.17970008  0.59545101     1.06400
C14         C  0.31364883  0.18401005  0.48191408     1.09400
C15         C  0.18119972  0.17972843  0.49021708     1.07100
H16         H  0.28512808  0.21231387  0.55186964     0.32700
O17         O  0.27354361  0.22352380  0.53624455    -1.29200
H18         H  0.20958285  0.21086329  0.43470634     0.32400
O19         O  0.22064875  0.22245531  0.45063885    -1.30900
O20         O  0.24756443  0.29571870  0.60873171    -0.86700
O21         O  0.24319243  0.29584608  0.37650919    -0.88200
O22         O  0.32152664  0.25043689  0.55762628    -0.86700
O23         O  0.17081679  0.24874725  0.55652521    -0.86800
O24         O  0.17063536  0.24692902  0.42897056    -0.86500
O25         O  0.32143336  0.25217473  0.42947868    -0.86300
O26         O  0.28718608  0.32423651  0.49358809    -0.86700
O27         O  0.20246213  0.32253628  0.49500256    -0.86100
O28         O  0.32048035  0.29377002  0.49537034    -0.87200
O29         O  0.17067856  0.29020190  0.49332981    -0.86400
O30         O  0.29186551  0.25057504  0.61040114    -0.86800
O31         O  0.29182098  0.24993302  0.37648003    -0.86500
O32         O  0.20026737  0.24803319  0.37616589    -0.86100
O33         O  0.20026165  0.25087853  0.60966314    -0.86500
O34         O  0.24726798  0.32566192  0.55618161    -0.86800
O35         O  0.24337096  0.32517349  0.42983513    -0.88200
Zr36       Zr  0.24627022  0.24951342  0.57938111     2.83100
Zr37       Zr  0.24593650  0.24937939  0.40644263     2.83500
Zr38       Zr  0.29851592  0.25061926  0.49318711     2.84100
Zr39       Zr  0.19380124  0.24782606  0.49290421     2.83400
Zr40       Zr  0.24521600  0.30134988  0.49288103     2.84200
O41         O  0.21906844  0.27492929  0.45036205    -1.08700
O42         O  0.27188528  0.27618925  0.53567049    -1.08200
C43         C  0.24803223  0.31981571  0.59408446     1.06400
C44         C  0.24219632  0.31997894  0.39171421     1.09000
C45         C  0.31586090  0.25113216  0.59566219     1.06600
C46         C  0.17626779  0.25081989  0.59447760     1.06900
C47         C  0.17635982  0.24675121  0.39101949     1.06500
C48         C  0.31577731  0.25157344  0.39147687     1.06100
C49         C  0.31179317  0.31790756  0.49554239     1.06500
C50         C  0.17825299  0.31465595  0.49547075     1.06000
H51         H  0.28298702  0.28809040  0.43407353     0.32700
O52         O  0.27205567  0.27629596  0.45002400    -1.29800
H53         H  0.20823359  0.28633119  0.55146123     0.32700
O54         O  0.21952924  0.27492686  0.53533799    -1.26600
N55         N  0.99531313  0.03994759  0.39438898    -0.36800
N56         N  0.03784669  0.49889310  0.57706724    -0.57300
N57         N  0.99492474  0.46062847  0.57235795    -0.36800
N58         N  0.45681172  0.50224618  0.58438215    -0.57300
C59         C  0.01621949  0.05417098  0.40835670     0.26800
C60         C  0.47469035  0.05497845  0.39024311     0.26800
C61         C  0.01501791  0.44605552  0.55699464     0.26800
C62         C  0.47113437  0.44557645  0.56984207     0.26800
C63         C  0.05153869  0.02164036  0.39158560     0.35400
C64         C  0.05223182  0.47636123  0.57460348     0.35400
C65         C  0.43899393  0.02223514  0.40352792     0.35400
C66         C  0.43948619  0.48193176  0.58677754     0.35400
C67         C  0.00727011  0.07735450  0.42658562    -0.22100
C68         C  0.48362355  0.08001698  0.37936142    -0.22100
C69         C  0.00505865  0.42378625  0.53728490    -0.22100
C70         C  0.47695005  0.42109500  0.55244975    -0.22100
C71         C  0.07746364  0.01477882  0.38271483    -0.23100
C72         C  0.07883571  0.48181844  0.58074663    -0.23100
C73         C  0.41420240  0.01549887  0.41821778    -0.23100
C74         C  0.41436764  0.49138510  0.59544065    -0.23100
C75         C  0.04317307  0.04708672  0.40419517    -0.18500
C76         C  0.44791955  0.04842261  0.39713703    -0.18500
C77         C  0.44523850  0.45557427  0.57544926    -0.18500
C78         C  0.04216582  0.45174435  0.56127122    -0.18500
H79         H  0.01906774  0.09292021  0.44038134     0.14400
H80         H  0.47170572  0.09708552  0.37127172     0.14400
H81         H  0.01605780  0.40819283  0.52217137     0.14400
H82         H  0.46315519  0.40649474  0.54069991     0.14400
H83         H  0.09432816  0.02794868  0.38033399     0.12700
H84         H  0.09528564  0.46807481  0.57899060     0.12700
H85         H  0.39813914  0.02874247  0.42620380     0.12700
H86         H  0.39627051  0.47999108  0.59794791     0.12700
H87         H  0.99610617  0.02301561  0.37624313     0.26000
H88         H  0.99659585  0.47673546  0.59202432     0.26000
O89         O  0.99823173  0.45506388  0.87033153    -0.86700
O90         O  0.00496724  0.45145506  0.10319610    -0.86800
O91         O  0.04220186  0.42337672  0.98709358    -0.88500
O92         O  0.46005680  0.42518344  0.99726668    -0.87300
O93         O  0.42916970  0.45794108  0.00367659    -0.86800
O94         O  0.07580755  0.45376816  0.98359018    -0.88200
O95         O  0.00192897  0.42334843  0.04867730    -0.86700
O96         O  0.99957259  0.42471022  0.92222703    -0.86300
Zr97       Zr  0.00087195  0.44763882  0.98643293     2.84300
O98         O  0.47846170  0.47377670  0.03434460    -1.08300
O99         O  0.02646728  0.47306156  0.94254738    -1.09000
C100        C  0.99909538  0.43078625  0.88443416     1.06400
C101        C  0.00360753  0.42766864  0.08696169     1.06400
C102        C  0.06684900  0.42981753  0.98661265     1.09400
C103        C  0.43629674  0.43338791  0.00402068     1.07100
H104        H  0.04078054  0.45992897  0.04314261     0.32700
O105        O  0.02955776  0.47174782  0.02834801    -1.29200
H106        H  0.46266696  0.46176451  0.93392276     0.32400
O107        O  0.47480731  0.47330909  0.94920130    -1.30900
O108        O  0.00693853  0.04319438  0.10831296    -0.86700
O109        O  0.99995237  0.04585795  0.87606892    -0.88200
O110        O  0.08048877  0.49575615  0.04626242    -0.86700
O111        O  0.43011125  0.50176527  0.05987148    -0.86800
O112        O  0.42622054  0.00191531  0.93922399    -0.86500
O113        O  0.07804014  0.99875734  0.92483850    -0.86300
O114        O  0.04549352  0.07220602  0.99529505    -0.86700
O115        O  0.46350940  0.07590906  0.00551405    -0.86100
O116        O  0.07734873  0.04009934  0.99537639    -0.87200
O117        O  0.43063765  0.04471079  0.00700366    -0.86400
O118        O  0.05292714  0.49727002  0.10154735    -0.86800
O119        O  0.04727785  0.99892471  0.87322786    -0.86500
O120        O  0.45406502  0.00203717  0.88423941    -0.86100
O121        O  0.46167815  0.50045208  0.11027067    -0.86500
O122        O  0.00687414  0.07259884  0.05538555    -0.86800
O123        O  0.00020881  0.07466199  0.93022475    -0.88200
Zr124      Zr  0.00601499  0.49830008  0.07525876     2.83100
Zr125      Zr  0.00144447  0.99930509  0.90441575     2.83500
Zr126      Zr  0.05538548  0.99726977  0.98880083     2.84100
Zr127      Zr  0.45137720  0.00081635  0.00118935     2.83400
Zr128      Zr  0.00341405  0.04962823  0.99218275     2.84200
O129        O  0.47611115  0.02684162  0.95670522    -1.08700
O130        O  0.03002137  0.02290670  0.03307745    -1.08200
C131        C  0.00779864  0.06735228  0.09333782     1.06400
C132        C  0.99899661  0.06970695  0.89202189     1.09000
C133        C  0.07630108  0.49593103  0.08468327     1.06600
C134        C  0.43720404  0.50169195  0.09733805     1.06900
C135        C  0.43055999  0.00223699  0.90083918     1.06500
C136        C  0.07162395  0.99902794  0.88713750     1.06100
C137        C  0.06971967  0.06454177  0.99752833     1.06500
C138        C  0.43920768  0.06890078  0.00918302     1.06000
H139        H  0.04029476  0.03649012  0.93184074     0.32700
O140        O  0.02924122  0.02472929  0.94757554    -1.29800
H141        H  0.46877585  0.03797023  0.05942693     0.32700
O142        O  0.47923150  0.02642582  0.04216216    -1.31200
N143        N  0.25209284  0.29199940  0.08513841    -0.36800
N144        N  0.29181918  0.25059102  0.08975014    -0.57300
N145        N  0.25188461  0.20946795  0.08645998    -0.36800
N146        N  0.21217452  0.25070169  0.08139370    -0.57300
C147        C  0.27424391  0.30553574  0.07524476     0.26800
C148        C  0.23135023  0.30550742  0.06938965     0.26800
C149        C  0.27364278  0.19537443  0.07610091     0.26800
C150        C  0.23065005  0.19526440  0.07404092     0.26800
C151        C  0.30721673  0.27197755  0.09700266     0.35400
C152        C  0.30725153  0.22904375  0.09540900     0.35400
C153        C  0.19654876  0.27235724  0.08430186     0.35400
C154        C  0.19627092  0.22944550  0.08656397     0.35400
C155        C  0.26747097  0.32822040  0.05380193    -0.22100
C156        C  0.24036154  0.32818312  0.05007636    -0.22100
C157        C  0.26612045  0.17154736  0.05817738    -0.22100
C158        C  0.23894551  0.17145012  0.05695765    -0.22100
C159        C  0.33237805  0.26397911  0.10865278    -0.23100
C160        C  0.33245665  0.23668865  0.10726592    -0.23100
C161        C  0.17069823  0.26489259  0.09246084    -0.23100
C162        C  0.17051482  0.23760714  0.09382289    -0.23100
C163        C  0.30036805  0.29799961  0.08533387    -0.18500
C164        C  0.20449764  0.29805763  0.07272444    -0.18500
C165        C  0.20397664  0.20309014  0.07825374    -0.18500
C166        C  0.30008217  0.20321519  0.08315492    -0.18500
H167        H  0.28068570  0.34307365  0.04154943     0.14400
H168        H  0.22866554  0.34303017  0.03455011     0.14400
H169        H  0.27886419  0.15587450  0.04698090     0.14400
H170        H  0.22672588  0.15573257  0.04448921     0.14400
H171        H  0.34935200  0.27651675  0.11477596     0.12700
H172        H  0.34942581  0.22398750  0.11237598     0.12700
H173        H  0.15357091  0.27771611  0.09505462     0.12700
H174        H  0.15323010  0.22516077  0.09767718     0.12700
H175        H  0.25108191  0.27558741  0.10418129     0.26000
H176        H  0.25142564  0.22681077  0.10371230     0.26000
C177        C  0.49686937  0.25201509  0.24828948    -0.02700
C178        C  0.25475291  0.49823776  0.23589273    -0.02700
C179        C  0.49794539  0.24942676  0.73809343    -0.02700
C180        C  0.25319942  0.00026426  0.74488359    -0.02700
C181        C  0.23147594  0.49588558  0.20311776    -0.20100
C182        C  0.22193269  0.01716195  0.18041458     0.36200
C183        C  0.19634208  0.01685901  0.16271929    -0.26000
C184        C  0.18096031  0.49541288  0.16202052     0.02600
C185        C  0.19050058  0.47240983  0.18153826     0.27400
C186        C  0.21571721  0.47257354  0.19995199    -0.25200
N187        N  0.23919290  0.03859086  0.16953841    -0.82500
H188        H  0.19031355  0.03329848  0.14370957     0.13200
C189        C  0.15348744  0.49595886  0.14351262     0.02600
N190        N  0.17432533  0.44890189  0.18336125    -0.81100
H191        H  0.22258755  0.45406816  0.21259094     0.18000
C192        C  0.14616903  0.47597522  0.11581686    -0.26000
C193        C  0.12053348  0.47472499  0.09888010     0.36100
C194        C  0.10119946  0.49395533  0.10946816    -0.20000
C195        C  0.10602839  0.01329631  0.14317485    -0.25200
C196        C  0.13176690  0.01480414  0.16064490     0.27400
H197        H  0.16076144  0.46131192  0.10688763     0.13200
N198        N  0.11419166  0.45423335  0.06989812    -0.82500
H199        H  0.09158696  0.02861397  0.14982628     0.18100
N200        N  0.13827901  0.03588966  0.18840395    -0.81100
H201        H  0.13051398  0.44190299  0.06472983     0.33700
H202        H  0.09942985  0.44229509  0.08247204     0.38200
H203        H  0.12198355  0.04839680  0.19268252     0.33600
H204        H  0.14240483  0.02727271  0.21646648     0.30300
H205        H  0.18420757  0.43355097  0.19837365     0.33700
H206        H  0.15765242  0.45346580  0.20072639     0.30300
H207        H  0.24510320  0.04924327  0.19509907     0.38200
H208        H  0.25589887  0.03063736  0.15542251     0.33700
C209        C  0.28178775  0.50070555  0.21170664    -0.20100
C210        C  0.29071921  0.48052468  0.18447983     0.36200
C211        C  0.31680467  0.48113051  0.16842467    -0.26000
C212        C  0.33463266  0.50179689  0.17790535     0.02600
C213        C  0.32284193  0.02503811  0.20292581     0.27400
C214        C  0.29650092  0.02510638  0.21676688    -0.25200
N215        N  0.27374971  0.45871106  0.17419157    -0.82500
H216        H  0.32320339  0.46515130  0.14865622     0.13200
C217        C  0.36252431  0.50214411  0.16112514     0.02600
N218        N  0.33949218  0.04740710  0.21166589    -0.81100
H219        H  0.28959680  0.04327828  0.23051718     0.18000
C220        C  0.36957338  0.02419440  0.14189232    -0.26000
C221        C  0.39507314  0.02491272  0.12495880     0.36100
C222        C  0.41434381  0.50390495  0.12594613    -0.20000
C223        C  0.40635647  0.48206564  0.14943904    -0.25200
C224        C  0.38073629  0.48102702  0.16721202     0.27400
H225        H  0.35592674  0.04017774  0.13498657     0.13200
N226        N  0.40229385  0.04680238  0.09962450    -0.82500
H227        H  0.41957891  0.46520880  0.15221138     0.18100
N228        N  0.37303183  0.45843190  0.19088856    -0.81100
H229        H  0.38876901  0.04774829  0.07565182     0.33700
H230        H  0.40052003  0.06431629  0.11656222     0.38200
H231        H  0.38849994  0.44465596  0.19246472     0.33600
H232        H  0.36968838  0.46510070  0.22045480     0.30300
H233        H  0.33072823  0.06432407  0.19914923     0.33700
H234        H  0.34360980  0.54538460  0.24408903     0.30300
H235        H  0.28321171  0.44104386  0.18239317     0.38200
H236        H  0.27127084  0.45853478  0.14276725     0.33700
C237        C  0.00419875  0.40227849  0.11174505    -0.20100
C238        C  0.00016536  0.40088522  0.15410616     0.36200
C239        C  0.99955718  0.37564735  0.17357786    -0.26000
C240        C  0.50590305  0.35433437  0.15875235     0.02600
C241        C  0.51072719  0.35526851  0.11694183     0.27400
C242        C  0.51124223  0.37989747  0.09698235    -0.25200
N243        N  0.99623789  0.42481278  0.17717550    -0.82500
H244        H  0.99637171  0.37463766  0.20594551     0.13200
C245        C  0.00278121  0.32510699  0.17271383     0.02600
N246        N  0.51519560  0.33102778  0.09473398    -0.81100
H247        H  0.51487808  0.37963782  0.06470864     0.18000
C248        C  0.48378592  0.31011549  0.17179463    -0.26000
C249        C  0.48199218  0.28516732  0.19135633     0.36100
C250        C  0.50108479  0.27750452  0.22092654    -0.20000
C251        C  0.02403485  0.29161413  0.21523174    -0.25200
C252        C  0.02417677  0.31705685  0.19711442     0.27400
H253        H  0.46847565  0.31581423  0.15049481     0.13200
N254        N  0.45995577  0.26819781  0.18243394    -0.82500
H255        H  0.04164750  0.28564563  0.23122558     0.18100
N256        N  0.04610424  0.33482929  0.20345606    -0.81100
H257        H  0.46035497  0.26375313  0.15150048     0.33700
H258        H  0.44253377  0.27871714  0.18837735     0.38200
H259        H  0.06011158  0.32632646  0.22282553     0.33600
H260        H  0.05543167  0.33756806  0.17557522     0.30300
H261        H  0.51824376  0.33495661  0.06404312     0.33700
H262        H  0.53275794  0.32263178  0.10558417     0.30300
H263        H  0.01404900  0.43539151  0.17682861     0.38200
H264        H  0.99250659  0.42028669  0.20748472     0.33700
C265        C  0.49571710  0.22718592  0.21799117    -0.20100
C266        C  0.02118913  0.21654375  0.19036763     0.36200
C267        C  0.02332345  0.19086026  0.17297228    -0.26000
C268        C  0.50061572  0.17552477  0.17956672     0.02600
C269        C  0.47679344  0.18315319  0.19871508     0.27400
C270        C  0.47436018  0.20879976  0.21658915    -0.25200
N271        N  0.04340185  0.23418713  0.18799551    -0.82500
H272        H  0.04230065  0.18485055  0.16086938     0.13200
C273        C  0.50438122  0.14802559  0.16094113     0.02600
N274        N  0.45494181  0.16486486  0.19971433    -0.81100
H275        H  0.45546994  0.21398922  0.22943332     0.18000
C276        C  0.49998012  0.12445698  0.18338599    -0.26000
C277        C  0.50217756  0.09857335  0.16553927     0.36100
C278        C  0.00963725  0.09239255  0.11900287    -0.20000
C279        C  0.02175826  0.11487535  0.10126751    -0.25200
C280        C  0.01888010  0.14085404  0.11702905     0.27400
H281        H  0.49444058  0.12626447  0.21492301     0.13200
N282        N  0.49702988  0.07527029  0.18920960    -0.82500
H283        H  0.03242524  0.11242246  0.07307744     0.18100
N284        N  0.02888452  0.16310196  0.09452930    -0.81100
H285        H  0.49281908  0.08055259  0.21915267     0.33700
H286        H  0.47994222  0.06630995  0.17759296     0.38200
H287        H  0.03855186  0.15675300  0.06827894     0.33600
H288        H  0.01262902  0.17439310  0.08511763     0.30300
H289        H  0.43884620  0.17320675  0.21500652     0.33700
H290        H  0.44878859  0.16160033  0.16985919     0.30300
H291        H  0.04720036  0.23776989  0.15741288     0.38200
H292        H  0.05996459  0.22461083  0.20015858     0.33700
C293        C  0.08588643  0.40812142  0.99371703    -0.20100
C294        C  0.10977780  0.40581597  0.97204429     0.36200
C295        C  0.12804810  0.38598371  0.98306206    -0.26000
C296        C  0.12285750  0.36886886  0.01552030     0.02600
C297        C  0.09868027  0.37067737  0.03637939     0.27400
C298        C  0.08035266  0.39020011  0.02508552    -0.25200
N299        N  0.11541240  0.42365117  0.93930771    -0.82500
H300        H  0.14671601  0.38433358  0.96716603     0.13200
C301        C  0.14372924  0.35056471  0.02956232     0.02600
N302        N  0.09320580  0.35313191  0.06959111    -0.81100
H303        H  0.06205117  0.39211329  0.04190675     0.18000
C304        C  0.15779273  0.35702982  0.06491543    -0.26000
C305        C  0.17783674  0.34027014  0.07956729     0.36100
C306        C  0.18376114  0.31669500  0.05830956    -0.20000
C307        C  0.16978260  0.31034688  0.02276431    -0.25200
C308        C  0.14965625  0.32703410  0.00824547     0.27400
H309        H  0.15306447  0.37523031  0.08102739     0.13200
N310        N  0.19224286  0.34705440  0.11573062    -0.82500
H311        H  0.17454944  0.29220187  0.00653859     0.18100
N312        N  0.13516294  0.32019929  0.97217939    -0.81100
H313        H  0.18561057  0.36520211  0.12747376     0.33700
H314        H  0.18800627  0.33261114  0.13743459     0.38200
H315        H  0.14217012  0.30232486  0.95996925     0.33600
H316        H  0.11549851  0.31684136  0.98053078     0.30300
H317        H  0.07470072  0.35738835  0.08218742     0.33700
H318        H  0.09204442  0.33380746  0.05793749     0.30300
H319        H  0.10131318  0.42021752  0.91666257     0.38200
H320        H  0.13386016  0.41930013  0.92661602     0.33700
C321        C  0.41616454  0.41320363  0.01521062    -0.20100
C322        C  0.38891346  0.41956555  0.01906186     0.36200
C323        C  0.37131497  0.40026899  0.03348376    -0.26000
C324        C  0.38021010  0.37494725  0.04444406     0.02600
C325        C  0.40722069  0.36852745  0.04098009     0.27400
C326        C  0.42484120  0.38755798  0.02592925    -0.25200
N327        N  0.37907557  0.44548206  0.00855141    -0.82500
H328        H  0.35040656  0.40486294  0.03571757     0.13200
C329        C  0.36069759  0.35484769  0.05723554     0.02600
N330        N  0.41666273  0.34283410  0.05340499    -0.81100
H331        H  0.44563197  0.38247738  0.02386481     0.18000
C332        C  0.35839104  0.33142551  0.03440939    -0.26000
C333        C  0.33905056  0.31249880  0.04353966     0.36100
C334        C  0.32200407  0.31697272  0.07659487    -0.20000
C335        C  0.32442016  0.34025044  0.09978644    -0.25200
C336        C  0.34367957  0.35935669  0.09036717     0.27400
H337        H  0.37124904  0.32830926  0.00861135     0.13200
N338        N  0.33625701  0.28897022  0.01900029    -0.82500
H339        H  0.31102535  0.34358204  0.12486634     0.18100
N340        N  0.34593312  0.38334627  0.11395210    -0.81100
H341        H  0.35049175  0.28860852  0.99608895     0.33700
H342        H  0.31780830  0.28988844  0.00465828     0.38200
H343        H  0.33178791  0.38366530  0.13699851     0.33600
H344        H  0.36447164  0.38317332  0.12808869     0.30300
H345        H  0.43708452  0.34125446  0.04891185     0.33700
H346        H  0.41353866  0.34126583  0.08458283     0.30300
H347        H  0.38106964  0.44760481  0.97724531     0.38200
H348        H  0.35885892  0.44707006  0.01482052     0.33700
C349        C  0.41986933  0.09012037  0.01778114    -0.20100
C350        C  0.42512394  0.11044182  0.04662658     0.36200
C351        C  0.40537189  0.12873673  0.05631741    -0.26000
C352        C  0.38055088  0.12762294  0.03750621     0.02600
C353        C  0.37548566  0.10812345  0.00766833     0.27400
C354        C  0.39515853  0.08935310  0.99840872    -0.25200
N355        N  0.44986614  0.11250303  0.06772692    -0.82500
H356        H  0.40938142  0.14394538  0.07887091     0.13200
C357        C  0.36007330  0.14701007  0.04964946     0.02600
N358        N  0.35032161  0.10730383  0.98729554    -0.81100
H359        H  0.39118592  0.07399541  0.97609615     0.18000
C360        C  0.35059723  0.16513792  0.02102824    -0.26000
C361        C  0.33138510  0.18396710  0.03129319     0.36100
C362        C  0.32144873  0.18462479  0.07136219    -0.20000
C363        C  0.33105286  0.16663032  0.10011660    -0.25200
C364        C  0.35034001  0.14773986  0.08963081     0.27400
H365        H  0.35831756  0.16472046  0.99044640     0.13200
N366        N  0.32258217  0.20201211  0.00035758    -0.82500
H367        H  0.32324203  0.16720118  0.13062756     0.18100
N368        N  0.35993486  0.12914484  0.11918132    -0.81100
H369        H  0.31308161  0.19076168  0.97794981     0.33700
H370        H  0.30870050  0.21563132  0.01115190     0.38200
H371        H  0.35085887  0.13243629  0.14716420     0.33600
H372        H  0.35431507  0.11009746  0.10970231     0.30300
H373        H  0.34993948  0.09195813  0.96584677     0.33700
H374        H  0.33591954  0.10277343  0.00884975     0.30300
H375        H  0.46485491  0.11650290  0.04689473     0.38200
H376        H  0.45373544  0.09444476  0.08211805     0.33700
C377        C  0.18325962  0.18352615  0.06723822    -0.20100
C378        C  0.17642655  0.16215659  0.09278828     0.36200
C379        C  0.15854014  0.14297606  0.07876411    -0.26000
C380        C  0.14803576  0.14405397  0.03938036     0.02600
C381        C  0.15518774  0.16525623  0.01372263     0.27400
C382        C  0.17234505  0.18503326  0.02826455    -0.25200
N383        N  0.18703835  0.15934193  0.13297362    -0.82500
H384        H  0.15274525  0.12708699  0.09894540     0.13200
C385        C  0.12888498  0.12336786  0.02612491     0.02600
N386        N  0.14552545  0.16628005  0.97277403    -0.81100
H387        H  0.17810421  0.20122997  0.00860792     0.18000
C388        C  0.10438302  0.13125003  0.01011687    -0.26000
C389        C  0.08515916  0.11250583  0.99915397     0.36100
C390        C  0.09020131  0.08512410  0.00492252    -0.20000
C391        C  0.11487032  0.07726370  0.02061362    -0.25200
C392        C  0.13431781  0.09601853  0.03093257     0.27400
H393        H  0.09987195  0.15219335  0.00678491     0.13200
N394        N  0.06061036  0.12150965  0.98223131    -0.82500
H395        H  0.11894890  0.05637940  0.02556398     0.18100
N396        N  0.15949833  0.08738050  0.04644685    -0.81100
H397        H  0.06478686  0.13233174  0.95605929     0.33700
H398        H  0.05168857  0.13437954  0.00304502     0.38200
H399        H  0.16009739  0.06666219  0.04888363     0.33600
H400        H  0.17392474  0.09267790  0.02534246     0.30300
H401        H  0.15256678  0.18324204  0.95809857     0.33700
H402        H  0.15332227  0.14989696  0.95729299     0.30300
H403        H  0.19930010  0.17523315  0.14090964     0.38200
H404        H  0.19879707  0.14223032  0.13320346     0.33700
C405        C  0.27938739  0.99950942  0.77178373    -0.20100
C406        C  0.30044190  0.48416010  0.75465733     0.36200
C407        C  0.32405699  0.48542556  0.77716052    -0.26000
C408        C  0.32863820  0.00451693  0.81608841     0.02600
C409        C  0.30711299  0.02150345  0.82474494     0.27400
C410        C  0.28300615  0.01888569  0.80268052    -0.25200
N411        N  0.30114984  0.46766908  0.71917468    -0.82500
H412        H  0.34034413  0.47247313  0.76884206     0.13200
C413        C  0.35454741  0.00535967  0.83844182     0.02600
N414        N  0.31003396  0.04190411  0.85499999    -0.81100
H415        H  0.26701828  0.03261021  0.80900896     0.18000
C416        C  0.37642833  0.01919642  0.82242033    -0.26000
C417        C  0.40185572  0.01799642  0.84093427     0.36100
C418        C  0.40559993  0.00228059  0.87586666    -0.20000
C419        C  0.38416727  0.48289144  0.87909637    -0.25200
C420        C  0.35903004  0.48412796  0.86034582     0.27400
H421        H  0.37363794  0.03091525  0.79530415     0.13200
N422        N  0.42357212  0.03301253  0.82482901    -0.82500
H423        H  0.38744838  0.46854565  0.90297751     0.18100
N424        N  0.33862962  0.46557771  0.87125643    -0.81100
H425        H  0.41759283  0.04341083  0.79903499     0.33700
H426        H  0.42889396  0.04730426  0.84644348     0.38200
H427        H  0.34552699  0.45232025  0.89318259     0.33600
H428        H  0.32321746  0.47636574  0.88451650     0.30300
H429        H  0.29266752  0.05310960  0.85729630     0.33700
H430        H  0.31270011  0.03262755  0.88295145     0.30300
H431        H  0.30525039  0.44816415  0.72805732     0.38200
H432        H  0.31666248  0.47399909  0.70064439     0.33700
C433        C  0.09519543  0.00016445  0.85963228    -0.20100
C434        C  0.10394580  0.47736837  0.84056917     0.36200
C435        C  0.13008231  0.47708836  0.82488071    -0.26000
C436        C  0.14732026  0.99782714  0.82544228     0.02600
C437        C  0.13956081  0.01955935  0.84971909     0.27400
C438        C  0.11389731  0.02051756  0.86645574    -0.25200
N439        N  0.08935806  0.45301585  0.84463236    -0.82500
H440        H  0.13862368  0.45850233  0.81459545     0.13200
C441        C  0.17452501  0.99671653  0.80666254     0.02600
N442        N  0.15775765  0.04081292  0.85751444    -0.81100
H443        H  0.10883780  0.03694474  0.88632977     0.18000
C444        C  0.17461183  0.49966529  0.76205292    -0.26000
C445        C  0.19915444  0.49942695  0.74210742     0.36100
C446        C  0.22577798  0.99854844  0.76818215    -0.20000
C447        C  0.22330759  0.99556069  0.81058230    -0.25200
C448        C  0.19811686  0.99494027  0.82972464     0.27400
H449        H  0.15660158  0.50044739  0.74417620     0.13200
N450        N  0.19900615  0.50046331  0.69879032    -0.82500
H451        H  0.24074464  0.99345146  0.82927564     0.18100
N452        N  0.19657054  0.99207976  0.87272972    -0.81100
H453        H  0.18866716  0.48388849  0.68789994     0.33700
H454        H  0.18878463  0.51753825  0.68982346     0.38200
H455        H  0.20615732  0.97441294  0.88060689     0.33600
H456        H  0.20694083  0.00785622  0.88602845     0.30300
H457        H  0.14917403  0.05846721  0.84725213     0.33700
H458        H  0.16031691  0.04242401  0.88884547     0.30300
H459        H  0.07260674  0.45437871  0.82610459     0.38200
H460        H  0.10046042  0.43694225  0.83389367     0.33700
C461        C  0.99575918  0.09418660  0.86635765    -0.20100
C462        C  0.47825057  0.11662085  0.88218812     0.36200
C463        C  0.47853829  0.14144429  0.86220592    -0.26000
C464        C  0.49585386  0.14665842  0.82993847     0.02600
C465        C  0.01370911  0.12582120  0.81650783     0.27400
C466        C  0.01374429  0.10039684  0.83535450    -0.25200
N467        N  0.46016811  0.11264419  0.91497109    -0.82500
H468        H  0.46530357  0.15698788  0.87255718     0.13200
C469        C  0.49560891  0.17384727  0.80970101     0.02600
N470        N  0.03277512  0.13186194  0.78570355    -0.81100
H471        H  0.02857498  0.08583136  0.82701674     0.18000
C472        C  0.01642516  0.18980145  0.81123320    -0.26000
C473        C  0.01664547  0.21496519  0.79195130     0.36100
C474        C  0.49642829  0.22427136  0.76719679    -0.20000
C475        C  0.47274578  0.20956901  0.77301328    -0.25200
C476        C  0.47225303  0.18453198  0.79260320     0.27400
H477        H  0.03390905  0.18332995  0.82749889     0.13200
N478        N  0.03989156  0.23114695  0.79498168    -0.82500
H479        H  0.45412225  0.21734975  0.76229731     0.18100
N480        N  0.44796211  0.16970952  0.79462776    -0.81100
H481        H  0.04326013  0.23526231  0.82560093     0.33700
H482        H  0.05599044  0.22015175  0.78422434     0.38200
H483        H  0.43249937  0.18015118  0.78084920     0.33600
H484        H  0.45053783  0.15226174  0.77778351     0.30300
H485        H  0.04521721  0.11558387  0.78063813     0.33700
H486        H  0.02241765  0.13509404  0.75873238     0.30300
H487        H  0.46406193  0.12700496  0.93717984     0.38200
H488        H  0.44095759  0.11576379  0.90412179     0.33700
C489        C  0.50196779  0.27449720  0.76711360    -0.20100
C490        C  0.48127423  0.28429356  0.79219857     0.36200
C491        C  0.48285474  0.31007038  0.80971766    -0.26000
C492        C  0.99960373  0.32654566  0.80496256     0.02600
C493        C  0.02189253  0.31679000  0.78386546     0.27400
C494        C  0.02236899  0.29024630  0.76983404    -0.25200
N495        N  0.45787136  0.26878036  0.79820587    -0.82500
H496        H  0.46621920  0.31745341  0.82706462     0.13200
C497        C  0.99935137  0.35456400  0.82219520     0.02600
N498        N  0.04383501  0.33414892  0.77555949    -0.81100
H499        H  0.04079214  0.28296186  0.75771330     0.18000
C500        C  0.02082681  0.36302729  0.84610746    -0.26000
C501        C  0.02192276  0.38873339  0.86321538     0.36100
C502        C  0.00092506  0.40693539  0.85708537    -0.20000
C503        C  0.48492842  0.39862414  0.83227498    -0.25200
C504        C  0.48503112  0.37330006  0.81281373     0.27400
H505        H  0.03672933  0.34917492  0.85233737     0.13200
N506        N  0.04399864  0.39618720  0.88842179    -0.82500
H507        H  0.46845862  0.41206249  0.82757952     0.18100
N508        N  0.46436657  0.36634015  0.78473860    -0.81100
H509        H  0.05763514  0.38061631  0.89061289     0.33700
H510        H  0.05377595  0.41188673  0.87420495     0.38200
H511        H  0.45094387  0.38203053  0.78170422     0.33600
H512        H  0.47312201  0.36363389  0.75636262     0.30300
H513        H  0.05853521  0.32414325  0.75929583     0.33700
H514        H  0.03688682  0.34927811  0.75666689     0.30300
H515        H  0.45576780  0.26559512  0.82926714     0.38200
H516        H  0.44157442  0.27986155  0.78841396     0.33700
C517        C  0.33979048  0.25395788  0.62252802    -0.20100
C518        C  0.35906523  0.27331080  0.61259521     0.36200
C519        C  0.38450785  0.27246030  0.63029953    -0.26000
C520        C  0.39157850  0.25290705  0.65859612     0.02600
C521        C  0.37166290  0.23472974  0.67085331     0.27400
C522        C  0.34613380  0.23521510  0.65256696    -0.25200
N523        N  0.35286336  0.29348734  0.58333050    -0.82500
H524        H  0.39921916  0.28685335  0.62101413     0.13200
C525        C  0.41967114  0.25242676  0.67508912     0.02600
N526        N  0.37718672  0.21585836  0.70207904    -0.81100
H527        H  0.33168610  0.22026152  0.66073285     0.18000
C528        C  0.43154447  0.27606121  0.68894027    -0.26000
C529        C  0.45758099  0.27660242  0.70486572     0.36100
C530        C  0.47197299  0.25243889  0.71101155    -0.20000
C531        C  0.46173647  0.22995280  0.69015123    -0.25200
C532        C  0.43583331  0.22952933  0.67350734     0.27400
H533        H  0.42061027  0.29454963  0.68704517     0.13200
N534        N  0.46956966  0.30201923  0.71189069    -0.82500
H535        H  0.47318122  0.21177320  0.68934367     0.18100
N536        N  0.42624741  0.20578916  0.65445215    -0.81100
H537        H  0.45723973  0.31298419  0.73109332     0.33700
H538        H  0.47030683  0.31207285  0.68427938     0.38200
H539        H  0.43910802  0.20094437  0.63080571     0.33600
H540        H  0.42705882  0.19043962  0.67567100     0.30300
H541        H  0.36372606  0.21903725  0.72558978     0.33700
H542        H  0.37381973  0.19681272  0.69035299     0.30300
H543        H  0.33759090  0.30514605  0.59522090     0.38200
H544        H  0.36900367  0.30616292  0.57907118     0.33700
C545        C  0.02062990  0.24670143  0.70954619    -0.20100
C546        C  0.03577517  0.22328820  0.70166787     0.36200
C547        C  0.06121860  0.22518858  0.68389935    -0.26000
C548        C  0.07205716  0.24979568  0.67226814     0.02600
C549        C  0.05509804  0.27228324  0.67397184     0.27400
C550        C  0.02894857  0.26965811  0.68859392    -0.25200
N551        N  0.02500110  0.19739720  0.70885467    -0.82500
H552        H  0.07251259  0.20715474  0.67904249     0.13200
C553        C  0.10014268  0.25150311  0.65587441     0.02600
N554        N  0.06486065  0.29819896  0.66343038    -0.81100
H555        H  0.01647748  0.28712676  0.68929736     0.18000
C556        C  0.10508376  0.26692044  0.62135459    -0.26000
C557        C  0.13060551  0.26952379  0.60494244     0.36100
C558        C  0.15191620  0.25413299  0.62024269    -0.20000
C559        C  0.14750659  0.23909336  0.65537641    -0.25200
C560        C  0.12207101  0.23820438  0.67393950     0.27400
H561        H  0.08882511  0.27688635  0.60638876     0.13200
N562        N  0.13492020  0.28756035  0.57189467    -0.82500
H563        H  0.16363276  0.22742740  0.66766880     0.18100
N564        N  0.11847747  0.22374638  0.71093142    -0.81100
H565        H  0.11742536  0.29743931  0.56412041     0.33700
H566        H  0.14812387  0.30218320  0.58201211     0.38200
H567        H  0.13634927  0.21526088  0.72033115     0.33600
H568        H  0.11308146  0.23745980  0.73331311     0.30300
H569        H  0.05011844  0.31261856  0.66683864     0.33700
H570        H  0.07984494  0.30306990  0.68406490     0.30300
H571        H  0.03828571  0.18687556  0.72707656     0.38200
H572        H  0.02378612  0.18742648  0.68107899     0.33700
C573        C  0.24821774  0.15639443  0.62339295    -0.20100
C574        C  0.22869268  0.13639650  0.62007998     0.36200
C575        C  0.23145324  0.11233972  0.64135442    -0.26000
C576        C  0.25392064  0.10705805  0.66518650     0.02600
C577        C  0.27367789  0.12693249  0.66844959     0.27400
C578        C  0.27052067  0.15145688  0.64781418    -0.25200
N579        N  0.20612454  0.14030817  0.59440890    -0.82500
H580        H  0.21612014  0.09736556  0.63852827     0.13200
C581        C  0.25552388  0.08095656  0.68730007     0.02600
N582        N  0.29697292  0.12205603  0.69230201    -0.81100
H583        H  0.28602234  0.16631556  0.64943882     0.18000
C584        C  0.27530005  0.06210948  0.67867300    -0.26000
C585        C  0.27533299  0.03650322  0.69674769     0.36100
C586        C  0.25431640  0.02839536  0.72277876    -0.20000
C587        C  0.23638904  0.04907032  0.73413253    -0.25200
C588        C  0.23657001  0.07455107  0.71665467     0.27400
H589        H  0.29085139  0.06722919  0.65757556     0.13200
N590        N  0.29739442  0.01932940  0.68951127    -0.82500
H591        H  0.22221837  0.04620469  0.75804428     0.18100
N592        N  0.21766608  0.09429629  0.72928220    -0.81100
H593        H  0.31432004  0.02872116  0.70094032     0.33700
H594        H  0.29996763  0.01733784  0.65828348     0.38200
H595        H  0.20478156  0.08663770  0.75103488     0.33600
H596        H  0.22817189  0.10971275  0.74333182     0.30300
H597        H  0.30973242  0.13840875  0.69121426     0.33700
H598        H  0.29103555  0.12012834  0.72243163     0.30300
H599        H  0.20592088  0.12513523  0.57266075     0.38200
H600        H  0.18908238  0.13841064  0.61204851     0.33700
C601        C  0.24925929  0.34348530  0.62156434    -0.20100
C602        C  0.27280637  0.35859058  0.62535786     0.36200
C603        C  0.27205654  0.38420624  0.64337753    -0.26000
C604        C  0.24819029  0.39540239  0.65714396     0.02600
C605        C  0.22472396  0.38021310  0.65365030     0.27400
C606        C  0.22553173  0.35450899  0.63602186    -0.25200
N607        N  0.29743430  0.34782051  0.61095320    -0.82500
H608        H  0.29014747  0.39562652  0.64639287     0.13200
C609        C  0.24818803  0.42254065  0.67656494     0.02600
N610        N  0.19992286  0.39141427  0.66640131    -0.81100
H611        H  0.20731958  0.34342156  0.63197102     0.18000
C612        C  0.24863506  0.44585848  0.65310920    -0.26000
C613        C  0.24865173  0.47161658  0.67110800     0.36100
C614        C  0.24917040  0.47447903  0.71406758    -0.20000
C615        C  0.24796861  0.45052990  0.73682906    -0.25200
C616        C  0.24753039  0.42518587  0.71880526     0.27400
H617        H  0.24862713  0.44408390  0.62041557     0.13200
N618        N  0.24731538  0.49429622  0.64527831    -0.82500
H619        H  0.24812308  0.45152988  0.76959856     0.18100
N620        N  0.24675002  0.40199786  0.74379961    -0.81100
H621        H  0.22978623  0.49304307  0.62850526     0.33700
H622        H  0.26296984  0.49306208  0.62473217     0.38200
H623        H  0.26327577  0.40240363  0.76290642     0.33600
H624        H  0.22981391  0.40314090  0.76185960     0.30300
H625        H  0.18439419  0.37824704  0.66025438     0.33700
H626        H  0.20059953  0.39369369  0.69782786     0.30300
H627        H  0.29591725  0.34529057  0.57964654     0.38200
H628        H  0.31288040  0.36130481  0.61588364     0.33700
C629        C  0.33403860  0.16449504  0.47055081    -0.20100
C630        C  0.33398218  0.13831937  0.48575946     0.36200
C631        C  0.35311876  0.12023284  0.47193867    -0.26000
C632        C  0.37195979  0.12786219  0.44316488     0.02600
C633        C  0.37203550  0.15390210  0.42791491     0.27400
C634        C  0.35305351  0.17202269  0.44181355    -0.25200
N635        N  0.31470057  0.13030657  0.51523737    -0.82500
H636        H  0.35342162  0.10011604  0.48357205     0.13200
C637        C  0.39207840  0.10852941  0.43019562     0.02600
N638        N  0.39133889  0.16174085  0.39836869    -0.81100
H639        H  0.35279006  0.19199282  0.42958063     0.18000
C640        C  0.39035245  0.09703284  0.39154506    -0.26000
C641        C  0.40876237  0.07791811  0.37887840     0.36100
C642        C  0.42929643  0.07040723  0.40574164    -0.20000
C643        C  0.43123623  0.08244169  0.44397334    -0.25200
C644        C  0.41278927  0.10146093  0.45651540     0.27400
H645        H  0.37436324  0.10267803  0.37139150     0.13200
N646        N  0.40571962  0.06634963  0.33925685    -0.82500
H647        H  0.44692735  0.07643944  0.46444111     0.18100
N648        N  0.41472198  0.11340183  0.49602929    -0.81100
H649        H  0.40779330  0.08162693  0.31812812     0.33700
H650        H  0.42069278  0.05264633  0.33306235     0.38200
H651        H  0.43095704  0.10573886  0.51184103     0.33600
H652        H  0.41838123  0.13368471  0.49207569     0.30300
H653        H  0.38833067  0.18149161  0.38973504     0.33700
H654        H  0.40996041  0.16096132  0.41220700     0.30300
H655        H  0.31738277  0.11036716  0.52308875     0.38200
H656        H  0.31803557  0.14148661  0.54151339     0.33700
C657        C  0.06376694  0.06597755  0.41877362    -0.20100
C658        C  0.07656982  0.08412024  0.39272982     0.36200
C659        C  0.09687770  0.10024957  0.40819690    -0.26000
C660        C  0.10423391  0.09915293  0.44912846     0.02600
C661        C  0.09117528  0.08149010  0.47529825     0.27400
C662        C  0.07118238  0.06488078  0.45974514    -0.25200
N663        N  0.06925611  0.08705743  0.35089668    -0.82500
H664        H  0.10666110  0.11420355  0.38828004     0.13200
C665        C  0.12463370  0.11784258  0.46426784     0.02600
N666        N  0.09817397  0.08066050  0.51747178    -0.81100
H667        H  0.06126097  0.05098345  0.47958392     0.18000
C668        C  0.11664478  0.14054356  0.48568592    -0.26000
C669        C  0.13486962  0.16056619  0.49589181     0.36100
C670        C  0.16167154  0.15787384  0.48460473    -0.20000
C671        C  0.16982274  0.13428482  0.46509769    -0.25200
C672        C  0.15155375  0.11427139  0.45478454     0.27400
H673        H  0.09595800  0.14312705  0.49338575     0.13200
N674        N  0.12599307  0.18360111  0.51755316    -0.82500
H675        H  0.19035078  0.13182139  0.45643630     0.18100
N676        N  0.16005734  0.09065462  0.43387491    -0.81100
H677        H  0.11764435  0.17731083  0.54481098     0.33700
H678        H  0.11112264  0.19271470  0.50045969     0.38200
H679        H  0.18046767  0.09123131  0.42872716     0.33600
H680        H  0.15662796  0.07451129  0.45300856     0.30300
H681        H  0.08643512  0.06682296  0.53270117     0.33700
H682        H  0.11769476  0.07388620  0.51951161     0.30300
H683        H  0.05344343  0.07472839  0.34297396     0.38200
H684        H  0.08540998  0.08108116  0.33337686     0.33700
C685        C  0.06113557  0.43124096  0.54805618    -0.20100
C686        C  0.06904378  0.42954757  0.50733308     0.36200
C687        C  0.08728716  0.41004985  0.49567766    -0.26000
C688        C  0.09718125  0.39212524  0.52426930     0.02600
C689        C  0.08836854  0.39305643  0.56465402     0.27400
C690        C  0.07048564  0.41287728  0.57633740    -0.25200
N691        N  0.05832561  0.44746428  0.47795288    -0.82500
H692        H  0.09395424  0.40906309  0.46455332     0.13200
C693        C  0.11793725  0.37324128  0.51274017     0.02600
N694        N  0.09785528  0.37392888  0.59349202    -0.81100
H695        H  0.06376837  0.41406418  0.60741805     0.18000
C696        C  0.14352751  0.37790343  0.52715357    -0.26000
C697        C  0.16331815  0.35888668  0.52216336     0.36100
C698        C  0.15781650  0.33529276  0.50034133    -0.20000
C699        C  0.13213534  0.33085947  0.48529117    -0.25200
C700        C  0.11191822  0.34949711  0.49205349     0.27400
H701        H  0.14778969  0.39586113  0.54424999     0.13200
N702        N  0.18840126  0.36290459  0.54162820    -0.82500
H703        H  0.12768443  0.31257432  0.46920476     0.18100
N704        N  0.08522331  0.34412907  0.47926840    -0.81100
H705        H  0.19657688  0.38057217  0.53077205     0.33700
H706        H  0.18503281  0.36526536  0.57265182     0.38200
H707        H  0.08411958  0.32564411  0.46476293     0.33600
H708        H  0.07356773  0.34267987  0.50528845     0.30300
H709        H  0.08943329  0.37735992  0.62190470     0.33700
H710        H  0.09131393  0.35517140  0.58402268     0.30300
H711        H  0.04887943  0.43616213  0.45553609     0.38200
H712        H  0.07403363  0.45763229  0.46450477     0.33700
C713        C  0.33112718  0.34005675  0.50022787    -0.20100
C714        C  0.32262668  0.36665000  0.50676073     0.36200
C715        C  0.34099468  0.38615428  0.51771454    -0.26000
C716        C  0.36780446  0.38004907  0.52120921     0.02600
C717        C  0.37690745  0.35437646  0.51144530     0.27400
C718        C  0.35845067  0.33449029  0.50133417    -0.25200
N719        N  0.29534326  0.37409688  0.50305955    -0.82500
H720        H  0.33419149  0.40615555  0.52428049     0.13200
C721        C  0.38607393  0.40072897  0.53588027     0.02600
N722        N  0.40478564  0.34864872  0.51236043    -0.81100
H723        H  0.36543466  0.31451294  0.49523263     0.18000
C724        C  0.39633527  0.39878384  0.57523351    -0.26000
C725        C  0.41448307  0.41749306  0.58967875     0.36100
C726        C  0.42290979  0.43809015  0.56402938    -0.20000
C727        C  0.41160501  0.44086880  0.52546051    -0.25200
C728        C  0.39295869  0.42239828  0.51120509     0.27400
H729        H  0.39029064  0.38256078  0.59463157     0.13200
N730        N  0.42413410  0.41524503  0.63032257    -0.82500
H731        H  0.41795201  0.45701752  0.50615194     0.18100
N732        N  0.38123879  0.42527133  0.47176122    -0.81100
H733        H  0.44469194  0.41304819  0.62949196     0.33700
H734        H  0.41977327  0.43295933  0.64561102     0.38200
H735        H  0.38822807  0.44247243  0.45769565     0.33600
H736        H  0.38744323  0.40919231  0.45402304     0.30300
H737        H  0.40824658  0.32883320  0.50427611     0.33700
H738        H  0.41381599  0.36031981  0.49019123     0.30300
H739        H  0.28915196  0.38222564  0.53062996     0.38200
H740        H  0.29388326  0.38887939  0.48100690     0.33700
C741        C  0.15263789  0.24381529  0.36426655    -0.20100
C742        C  0.13467568  0.22293576  0.37200902     0.36200
C743        C  0.10900293  0.22337749  0.35548595    -0.26000
C744        C  0.10048761  0.24414204  0.33025856     0.02600
C745        C  0.11881700  0.26465048  0.32099037     0.27400
C746        C  0.14462401  0.26434409  0.33823221    -0.25200
N747        N  0.14232678  0.20143248  0.39788200    -0.82500
H748        H  0.09539953  0.20759772  0.36341223     0.13200
C749        C  0.07257427  0.24390461  0.31359178     0.02600
N750        N  0.11103649  0.28593348  0.29461660    -0.81100
H751        H  0.15802964  0.28075744  0.33283827     0.18000
C752        C  0.05604305  0.26623924  0.31793014    -0.26000
C753        C  0.03084493  0.26746145  0.29911779     0.36100
C754        C  0.02204024  0.24643920  0.27329530    -0.20000
C755        C  0.03632186  0.22227709  0.27700112    -0.25200
C756        C  0.06184928  0.22118251  0.29436005     0.27400
H757        H  0.06292990  0.28316135  0.33541521     0.13200
N758        N  0.01500192  0.29072108  0.30492719    -0.82500
H759        H  0.02840552  0.20408663  0.26444118     0.18100
N760        N  0.07724999  0.19723076  0.29099973    -0.81100
H761        H  0.02610830  0.30734604  0.29649274     0.33700
H762        H  0.01095977  0.29249411  0.33582978     0.38200
H763        H  0.06657572  0.18232459  0.27602232     0.33600
H764        H  0.09363007  0.20145285  0.27284637     0.30300
H765        H  0.12657580  0.29943881  0.29099561     0.33700
H766        H  0.10725245  0.27770642  0.26606905     0.30300
H767        H  0.12916458  0.20079755  0.42222301     0.38200
H768        H  0.14038713  0.18367892  0.38156481     0.33700
C769        C  0.33974494  0.25406379  0.36508195    -0.20100
C770        C  0.34699215  0.23489989  0.33576640     0.36200
C771        C  0.37294292  0.23527643  0.31915402    -0.26000
C772        C  0.39197166  0.25427425  0.33147211     0.02600
C773        C  0.38440887  0.27360414  0.36039780     0.27400
C774        C  0.35855576  0.27343546  0.37627992    -0.25200
N775        N  0.32859663  0.21435324  0.32458666    -0.82500
H776        H  0.37847782  0.22047644  0.29681956     0.13200
C777        C  0.41952885  0.25419209  0.31368698     0.02600
N778        N  0.40333705  0.29282076  0.37480377    -0.81100
H779        H  0.35336617  0.28792309  0.39932871     0.18000
C780        C  0.42948308  0.27735566  0.29595551    -0.26000
C781        C  0.45492622  0.27840303  0.27856923     0.36100
C782        C  0.47071955  0.25479620  0.27480749    -0.20000
C783        C  0.46199197  0.23280997  0.29801633    -0.25200
C784        C  0.43659258  0.23201468  0.31635326     0.27400
H785        H  0.41749010  0.29522227  0.29613260     0.13200
N786        N  0.46488913  0.30410656  0.26796139    -0.82500
H787        H  0.47454334  0.21539365  0.29982603     0.18100
N788        N  0.42812772  0.20874000  0.33779908    -0.81100
H789        H  0.46522498  0.31590764  0.29409723     0.33700
H790        H  0.45160775  0.31288157  0.24768719     0.38200
H791        H  0.44277795  0.19407162  0.33693772     0.33600
H792        H  0.42582063  0.21410104  0.36820181     0.30300
H793        H  0.39471747  0.30560819  0.39605337     0.33700
H794        H  0.41828562  0.28246943  0.38999147     0.30300
H795        H  0.31262418  0.22343573  0.30996524     0.38200
H796        H  0.33716174  0.20140014  0.30353255     0.33700
C797        C  0.23965807  0.34463766  0.36543265    -0.20100
C798        C  0.22788071  0.36820147  0.38150280     0.36200
C799        C  0.23023701  0.39268173  0.36101443    -0.26000
C800        C  0.24275705  0.39474391  0.32329177     0.02600
C801        C  0.25256497  0.37090694  0.30543898     0.27400
C802        C  0.25123289  0.34632233  0.32678259    -0.25200
N803        N  0.21368409  0.36736809  0.41920745    -0.82500
H804        H  0.22267939  0.41051374  0.37534912     0.13200
C805        C  0.24632007  0.42201948  0.30404398     0.02600
N806        N  0.26403531  0.37174564  0.26571742    -0.81100
H807        H  0.25999474  0.32863253  0.31367416     0.18000
C808        C  0.27139462  0.42988633  0.29022796    -0.26000
C809        C  0.27586587  0.45486743  0.27180830     0.36100
C810        C  0.25439010  0.47285468  0.26475851    -0.20000
C811        C  0.23045076  0.46652246  0.28493564    -0.25200
C812        C  0.22571238  0.44114838  0.30213855     0.27400
H813        H  0.28806832  0.41664176  0.29456635     0.13200
N814        N  0.30268780  0.46215008  0.26345000    -0.82500
H815        H  0.21421281  0.48055229  0.28330776     0.18100
N816        N  0.19962184  0.43448828  0.31609055    -0.81100
H817        H  0.31321278  0.46208129  0.29074211     0.33700
H818        H  0.31099471  0.44750170  0.24486878     0.38200
H819        H  0.18670591  0.45055819  0.31248690     0.33600
H820        H  0.19244310  0.41918643  0.29756535     0.30300
H821        H  0.27024847  0.35279350  0.25675185     0.33700
H822        H  0.24912926  0.37742020  0.24549681     0.30300
H823        H  0.19713876  0.35517394  0.41491374     0.38200
H824        H  0.20648472  0.38617485  0.42709790     0.33700
C825        C  0.24360397  0.15364969  0.36689635    -0.20100
C826        C  0.24422844  0.15226947  0.32405101     0.36200
C827        C  0.24366922  0.12697611  0.30432533    -0.26000
C828        C  0.24261291  0.10301087  0.32646776     0.02600
C829        C  0.24076321  0.10445094  0.36876913     0.27400
C830        C  0.24133504  0.12928787  0.38821598    -0.25200
N831        N  0.24544358  0.17624737  0.30068387    -0.82500
H832        H  0.24465587  0.12591040  0.27161209     0.13200
C833        C  0.24410351  0.07624000  0.30612599     0.02600
N834        N  0.23833680  0.08044875  0.39203650    -0.81100
H835        H  0.24000771  0.12923804  0.42089935     0.18000
C836        C  0.26571777  0.05949594  0.31407792    -0.26000
C837        C  0.26777574  0.03395236  0.29645894     0.36100
C838        C  0.24864352  0.02493436  0.26773672    -0.20000
C839        C  0.22496192  0.04024327  0.26573923    -0.25200
C840        C  0.22288597  0.06587288  0.28335732     0.27400
H841        H  0.28131998  0.06637667  0.33412189     0.13200
N842        N  0.29006011  0.01775579  0.30673081    -0.82500
H843        H  0.20779801  0.03268860  0.25001659     0.18100
N844        N  0.19913971  0.08129930  0.27851935    -0.81100
H845        H  0.28955092  0.01431725  0.33789891     0.33700
H846        H  0.30734838  0.02840413  0.30050431     0.38200
H847        H  0.18534691  0.07105998  0.26068104     0.33600
H848        H  0.19061139  0.08359657  0.30712959     0.30300
H849        H  0.23733671  0.08472285  0.42299090     0.33700
H850        H  0.22033110  0.07153348  0.38418231     0.30300
H851        H  0.26381776  0.18509913  0.30631677     0.38200
H852        H  0.24490034  0.17181652  0.26974678     0.33700
O853        O  0.24800714  0.70130095  0.37547909    -0.86700
O854        O  0.24821091  0.70630664  0.60906453    -0.86800
O855        O  0.29130978  0.67628177  0.49553447    -0.88500
O856        O  0.20724759  0.67465986  0.49735729    -0.87300
O857        O  0.17457090  0.70596871  0.49611145    -0.86800
O858        O  0.32306010  0.70851617  0.49560666    -0.88200
O859        O  0.24821670  0.67570588  0.55709117    -0.86700
O860        O  0.24968253  0.67354607  0.43018505    -0.86300
Zr861      Zr  0.24883287  0.69804698  0.49266213     2.84300
O862        O  0.22213145  0.72421582  0.53404748    -1.08300
O863        O  0.27445163  0.72333045  0.44859989    -1.09000
C864        C  0.24886977  0.67757264  0.39179334     1.06400
C865        C  0.24787125  0.68203424  0.59488450     1.06400
C866        C  0.31550816  0.68404828  0.49774406     1.09400
C867        C  0.18286799  0.68192217  0.49955048     1.07100
H868        H  0.28593897  0.71428141  0.55153474     0.32700
O869        O  0.27453409  0.72491404  0.53502100    -1.29200
H870        H  0.21067655  0.71004070  0.43353894     0.32400
O871        O  0.22172836  0.72211301  0.44869142    -1.30900
O872        O  0.24660038  0.79745703  0.60648752    -0.86700
O873        O  0.24625543  0.79440442  0.37257675    -0.88200
O874        O  0.32373641  0.75514686  0.55367902    -0.86700
O875        O  0.17204675  0.74979407  0.55351121    -0.86800
O876        O  0.17170883  0.74564502  0.42753864    -0.86500
O877        O  0.32279624  0.74974499  0.42745683    -0.86300
O878        O  0.28741797  0.82533780  0.48981137    -0.86700
O879        O  0.20313245  0.82343880  0.48409696    -0.86100
O880        O  0.32005131  0.79406560  0.48762514    -0.87200
O881        O  0.17188442  0.79068851  0.48436505    -0.86400
O882        O  0.29429787  0.75447335  0.60667516    -0.86800
O883        O  0.29323785  0.74825988  0.37432005    -0.86500
O884        O  0.20113050  0.74685131  0.37449916    -0.86100
O885        O  0.20123410  0.75133856  0.60698877    -0.86500
O886        O  0.24411614  0.82651042  0.55306500    -0.86800
O887        O  0.24630559  0.82436928  0.42532137    -0.88200
Zr888      Zr  0.24765085  0.75153400  0.57742117     2.83100
Zr889      Zr  0.24733230  0.74830801  0.40397440     2.83500
Zr890      Zr  0.29960912  0.75075655  0.49096331     2.84100
Zr891      Zr  0.19550595  0.74887662  0.49038384     2.83400
Zr892      Zr  0.24595428  0.80201675  0.48964393     2.84200
O893        O  0.22071125  0.77491417  0.44697566    -1.08700
O894        O  0.27320721  0.77745173  0.53265654    -1.08200
C895        C  0.24493837  0.82128948  0.59127353     1.06400
C896        C  0.24568719  0.81867659  0.38730998     1.09000
C897        C  0.31831787  0.75602358  0.59170396     1.06600
C898        C  0.17726190  0.75114538  0.59158303     1.06900
C899        C  0.17723257  0.74540986  0.38958188     1.06500
C900        C  0.31718118  0.74914483  0.38945967     1.06100
C901        C  0.31177742  0.81827579  0.48746312     1.06500
C902        C  0.17901767  0.81523016  0.48209735     1.06000
H903        H  0.28374009  0.78713753  0.43127173     0.32700
O904        O  0.27274111  0.77577599  0.44766462    -1.29800
H905        H  0.20854880  0.78794609  0.54831145     0.32700
O906        O  0.22030162  0.77647035  0.53304089    -1.26600
N907        N  0.00044634  0.54230427  0.58526577    -0.36800
N908        N  0.03639785  0.99960373  0.39393557    -0.57300
N909        N  0.99740673  0.95738867  0.39115217    -0.36800
N910        N  0.45369590  0.00019991  0.39733761    -0.57300
C911        C  0.02292045  0.55597695  0.57748085     0.26800
C912        C  0.47950688  0.55656694  0.57890057     0.26800
C913        C  0.01936475  0.94347084  0.40101413     0.26800
C914        C  0.47262213  0.94436472  0.39958412     0.26800
C915        C  0.05520115  0.51876495  0.58404657     0.35400
C916        C  0.05266941  0.97870862  0.38771740     0.35400
C917        C  0.44272105  0.52467453  0.59055883     0.35400
C918        C  0.43872756  0.97958540  0.40966080     0.35400
C919        C  0.01656694  0.58149249  0.56491048    -0.22100
C920        C  0.48913413  0.58076525  0.56536876    -0.22100
C921        C  0.01215528  0.91908404  0.41715610    -0.22100
C922        C  0.47961565  0.91835237  0.39055787    -0.22100
C923        C  0.08072148  0.50872555  0.58683017    -0.23100
C924        C  0.07817416  0.98751174  0.38023425    -0.23100
C925        C  0.41639876  0.51853007  0.59773866    -0.23100
C926        C  0.41407690  0.98840458  0.42227774    -0.23100
C927        C  0.04903206  0.54594243  0.58017496    -0.18500
C928        C  0.45231958  0.55039223  0.58259558    -0.18500
C929        C  0.44684292  0.95283314  0.40903740    -0.18500
C930        C  0.04575479  0.95216762  0.39611387    -0.18500
H931        H  0.03005428  0.59723929  0.55649319     0.14400
H932        H  0.47787395  0.59814161  0.55665608     0.14400
H933        H  0.02506195  0.90335224  0.42760643     0.14400
H934        H  0.46652157  0.90148208  0.38675853     0.14400
H935        H  0.09894426  0.51982339  0.59041302     0.12700
H936        H  0.09568677  0.97547967  0.37566523     0.12700
H937        H  0.40012428  0.53219994  0.60224994     0.12700
H938        H  0.39783495  0.97660338  0.43371477     0.12700
H939        H  0.99923203  0.52356816  0.59824736     0.26000
H940        H  0.99683659  0.97516566  0.37523237     0.26000
O941        O  0.00219592  0.95387436  0.87201855    -0.86700
O942        O  0.00285669  0.94920957  0.10488155    -0.86800
O943        O  0.04444639  0.92286718  0.98970603    -0.88500
O944        O  0.46092750  0.92611737  0.00461572    -0.87300
O945        O  0.42891065  0.95821748  0.00792742    -0.86800
O946        O  0.07731232  0.95411827  0.98677623    -0.88200
O947        O  0.00218560  0.92111856  0.05010821    -0.86700
O948        O  0.00309047  0.92358600  0.92396395    -0.86300
Zr949      Zr  0.00236131  0.94603794  0.98841662     2.84300
O950        O  0.47863201  0.97399763  0.04114578    -1.08300
O951        O  0.02828035  0.97209152  0.94595071    -1.09000
C952        C  0.00339454  0.92966461  0.88619417     1.06400
C953        C  0.00204021  0.92536481  0.08849053     1.06400
C954        C  0.06894556  0.92995201  0.98919468     1.09400
C955        C  0.43683296  0.93384927  0.00930104     1.07100
H956        H  0.04087467  0.95898871  0.04666462     0.32700
O957        O  0.02970711  0.97073796  0.03155191    -1.29200
H958        H  0.46358766  0.96266893  0.94075835     0.32400
O959        O  0.47568394  0.97414779  0.95614568    -1.30900
O960        O  0.00795391  0.54434059  0.10686427    -0.86700
O961        O  0.99699022  0.54727287  0.87421221    -0.88200
O962        O  0.07982788  0.99529888  0.05154091    -0.86700
O963        O  0.42969217  0.00151151  0.06595335    -0.86800
O964        O  0.42516903  0.49963523  0.93221822    -0.86500
O965        O  0.07666697  0.49958425  0.92002963    -0.86300
O966        O  0.04693700  0.57225557  0.99213281    -0.86700
O967        O  0.46249917  0.57471193  0.99722457    -0.86100
O968        O  0.07823286  0.53956388  0.99024586    -0.87200
O969        O  0.42981286  0.54340777  0.00014934    -0.86400
O970        O  0.05113599  0.99564824  0.10559993    -0.86800
O971        O  0.04477725  0.50134671  0.87000056    -0.86500
O972        O  0.45328129  0.50057746  0.87753153    -0.86100
O973        O  0.46083795  0.00017437  0.11691476    -0.86500
O974        O  0.00718904  0.57344319  0.05386486    -0.86800
O975        O  0.00008442  0.57602801  0.92825195    -0.88200
Zr976      Zr  0.00457075  0.99658454  0.07764840     2.83100
Zr977      Zr  0.99903368  0.50076023  0.90235219     2.83500
Zr978      Zr  0.05489298  0.49759720  0.98452382     2.84100
Zr979      Zr  0.45103215  0.50025106  0.99425333     2.83400
Zr980      Zr  0.00394587  0.55111692  0.99012883     2.84200
O981        O  0.47564920  0.52641754  0.94984103    -1.08700
O982        O  0.03115535  0.52416219  0.02978789    -1.08200
C983        C  0.00806137  0.56843270  0.09190417     1.06400
C984        C  0.99717914  0.57110916  0.89024014     1.09000
C985        C  0.07485347  0.99492500  0.08973373     1.06600
C986        C  0.43642934  0.00135787  0.10352772     1.06900
C987        C  0.42969766  0.50012084  0.89379380     1.06500
C988        C  0.06944592  0.50085778  0.88276396     1.06100
C989        C  0.07107719  0.56409141  0.99297232     1.06500
C990        C  0.43826831  0.56757587  0.00199699     1.06000
H991        H  0.03910784  0.53711811  0.92839572     0.32700
O992        O  0.02814879  0.52541186  0.94462745    -1.29800
H993        H  0.46881307  0.53748895  0.05204230     0.32700
O994        O  0.47926100  0.52590270  0.03473287    -1.31200
N995        N  0.25466362  0.78795527  0.07803674    -0.36800
N996        N  0.29394462  0.74642225  0.08999882    -0.57300
N997        N  0.25266229  0.70594104  0.09389694    -0.36800
N998        N  0.21352158  0.74774702  0.07833040    -0.57300
C999        C  0.27704916  0.80117166  0.06807752     0.26800
C1000       C  0.23404961  0.80223499  0.06342287     0.26800
C1001       C  0.27430841  0.69024770  0.09040675     0.26800
C1002       C  0.23149120  0.69086948  0.08361805     0.26800
C1003       C  0.31014224  0.76773290  0.09144447     0.35400
C1004       C  0.30895312  0.72512463  0.09937978     0.35400
C1005       C  0.19789986  0.76940835  0.07469241     0.35400
C1006       C  0.19708732  0.72664414  0.08039575     0.35400
C1007       C  0.27045942  0.82436432  0.04774977    -0.22100
C1008       C  0.24336549  0.82512558  0.04512215    -0.22100
C1009       C  0.26660028  0.66453676  0.08064411    -0.22100
C1010       C  0.23960426  0.66490708  0.07647989    -0.22100
C1011       C  0.33543544  0.76002656  0.10286946    -0.23100
C1012       C  0.33474067  0.73294951  0.10741657    -0.23100
C1013       C  0.17145128  0.76205240  0.07516551    -0.23100
C1014       C  0.17094911  0.73494688  0.07838408    -0.23100
C1015       C  0.30329481  0.79329108  0.07739683    -0.18500
C1016       C  0.20700696  0.79521948  0.06565306    -0.18500
C1017       C  0.20513261  0.69983379  0.07885380    -0.18500
C1018       C  0.30096377  0.69856392  0.09357910    -0.18500
H1019       H  0.28376798  0.83915736  0.03558241     0.14400
H1020       H  0.23187219  0.84053410  0.03053295     0.14400
H1021       H  0.27917190  0.64738701  0.07586288     0.14400
H1022       H  0.22744846  0.64807665  0.06786424     0.14400
H1023       H  0.35287211  0.77241586  0.10561518     0.12700
H1024       H  0.35150084  0.72030612  0.11421462     0.12700
H1025       H  0.15430416  0.77473784  0.07156619     0.12700
H1026       H  0.15334920  0.72267185  0.07788062     0.12700
H1027       H  0.25339902  0.77138245  0.09657260     0.26000
H1028       H  0.25228748  0.72560848  0.10342527     0.26000
C1029       C  0.49785140  0.74855853  0.24583913    -0.02700
C1030       C  0.25362175  0.99966035  0.23959442    -0.02700
C1031       C  0.49793166  0.75108432  0.74372024    -0.02700
C1032       C  0.25080174  0.50102196  0.73972178    -0.02700
C1033       C  0.22988416  0.99652916  0.20778906    -0.20100
C1034       C  0.22408621  0.51678827  0.17596691     0.36200
C1035       C  0.19860133  0.51693230  0.15780711    -0.26000
C1036       C  0.17865803  0.99563217  0.16883502     0.02600
C1037       C  0.18804053  0.97330691  0.19013963     0.27400
C1038       C  0.21379839  0.97339423  0.20672680    -0.25200
N1039       N  0.24191382  0.53783648  0.16548423    -0.82500
H1040       H  0.19274834  0.53380410  0.13956864     0.13200
C1041       C  0.15123637  0.99563834  0.15037257     0.02600
N1042       N  0.17108072  0.95065167  0.19576021    -0.81100
H1043       H  0.22075565  0.95505624  0.21973296     0.18000
C1044       C  0.14422385  0.97524169  0.12322437    -0.26000
C1045       C  0.11871782  0.97368276  0.10590320     0.36100
C1046       C  0.09928834  0.99302941  0.11550388    -0.20000
C1047       C  0.10829152  0.51395629  0.13738209    -0.25200
C1048       C  0.13422843  0.51527038  0.15423966     0.27400
H1049       H  0.15894752  0.96050773  0.11508405     0.13200
N1050       N  0.11259584  0.95276702  0.07752950    -0.82500
H1051       H  0.09396784  0.52926454  0.14465459     0.18100
N1052       N  0.14117732  0.53640620  0.18166386    -0.81100
H1053       H  0.12895453  0.94035418  0.07313548     0.33700
H1054       H  0.09773390  0.94103076  0.09027309     0.38200
H1055       H  0.12507094  0.54914203  0.18606939     0.33600
H1056       H  0.14544239  0.52789165  0.20974066     0.30300
H1057       H  0.18073263  0.93588424  0.21238728     0.33700
H1058       H  0.15499709  0.95684870  0.21329822     0.30300
H1059       H  0.24815274  0.54810339  0.19121168     0.38200
H1060       H  0.25845655  0.52946133  0.15145427     0.33700
C1061       C  0.28003842  0.00232725  0.21426744    -0.20100
C1062       C  0.28935445  0.98139032  0.18881027     0.36200
C1063       C  0.31561183  0.98170597  0.17353101    -0.26000
C1064       C  0.33305301  0.00290223  0.18186069     0.02600
C1065       C  0.32513612  0.52297310  0.20176107     0.27400
C1066       C  0.29894899  0.52288372  0.21639021    -0.25200
N1067       N  0.27272713  0.95901451  0.18013026    -0.82500
H1068       H  0.32248100  0.96506583  0.15547786     0.13200
C1069       C  0.36113270  0.00289545  0.16598273     0.02600
N1070       N  0.34240101  0.54448783  0.21250598    -0.81100
H1071       H  0.29269307  0.54057190  0.23214515     0.18000
C1072       C  0.37109776  0.52430975  0.13888609    -0.26000
C1073       C  0.39653068  0.52536653  0.12158788     0.36100
C1074       C  0.41317174  0.00389762  0.13145322    -0.20000
C1075       C  0.40526527  0.98285290  0.15670025    -0.25200
C1076       C  0.37953471  0.98225691  0.17428773     0.27400
H1077       H  0.35762551  0.54073058  0.13378355     0.13200
N1078       N  0.40396202  0.54806308  0.09811380    -0.82500
H1079       H  0.41865147  0.96628859  0.16115183     0.18100
N1080       N  0.37193632  0.96063213  0.20006122    -0.81100
H1081       H  0.39030473  0.55008074  0.07449894     0.33700
H1082       H  0.40253287  0.56494319  0.11656385     0.38200
H1083       H  0.38753806  0.94712088  0.20313731     0.33600
H1084       H  0.36839478  0.96850227  0.22889192     0.30300
H1085       H  0.33386013  0.56218072  0.20234112     0.33700
H1086       H  0.34019312  0.04995027  0.24308564     0.30300
H1087       H  0.28230315  0.94182405  0.19016262     0.38200
H1088       H  0.27057517  0.95757973  0.14872000     0.33700
C1089       C  0.00067446  0.89980264  0.11314744    -0.20100
C1090       C  0.00563632  0.89795666  0.15525255     0.36200
C1091       C  0.00501736  0.87267120  0.17464479    -0.26000
C1092       C  0.50714930  0.85258358  0.16143189     0.02600
C1093       C  0.51657622  0.85505833  0.12168327     0.27400
C1094       C  0.51698209  0.88017638  0.10304171    -0.25200
N1095       N  0.01158530  0.92150950  0.17822296    -0.82500
H1096       H  0.00871634  0.87150619  0.20689788     0.13200
C1097       C  0.00052090  0.82206963  0.17390970     0.02600
N1098       N  0.52531235  0.83181954  0.09996889    -0.81100
H1099       H  0.52366100  0.88111719  0.07200848     0.18000
C1100       C  0.48512891  0.80787485  0.17126086    -0.26000
C1101       C  0.48341779  0.78233971  0.18917861     0.36100
C1102       C  0.50241145  0.77405894  0.21851950    -0.20000
C1103       C  0.02224869  0.78889817  0.21667525    -0.25200
C1104       C  0.02274232  0.81359827  0.19635466     0.27400
H1105       H  0.46983884  0.81413066  0.15030035     0.13200
N1106       N  0.46148184  0.76550801  0.17912133    -0.82500
H1107       H  0.04009787  0.78287546  0.23201485     0.18100
N1108       N  0.04602710  0.83000284  0.19803975    -0.81100
H1109       H  0.46200274  0.76184287  0.14796374     0.33700
H1110       H  0.44398320  0.77578147  0.18549879     0.38200
H1111       H  0.06066332  0.82120281  0.21596836     0.33600
H1112       H  0.05368218  0.83113081  0.16872113     0.30300
H1113       H  0.53143615  0.83682128  0.07077107     0.33700
H1114       H  0.54200096  0.82436841  0.11487514     0.30300
H1115       H  0.02975397  0.92877258  0.16797362     0.38200
H1116       H  0.01422415  0.91686098  0.20878394     0.33700
C1117       C  0.49632239  0.72384339  0.21569041    -0.20100
C1118       C  0.01718119  0.71541847  0.19185864     0.36200
C1119       C  0.01894457  0.69007990  0.17366013    -0.26000
C1120       C  0.49916087  0.67279969  0.17544489     0.02600
C1121       C  0.47518167  0.68157541  0.19297288     0.27400
C1122       C  0.47396409  0.70675196  0.21256070    -0.25200
N1123       N  0.03857658  0.73371661  0.18629898    -0.82500
H1124       H  0.03664536  0.68510398  0.15679328     0.13200
C1125       C  0.50212969  0.64562527  0.15578007     0.02600
N1126       N  0.45199192  0.66507121  0.19041247    -0.81100
H1127       H  0.45518603  0.71278066  0.22504558     0.18000
C1128       C  0.49423691  0.62204175  0.17575289    -0.26000
C1129       C  0.49658463  0.59652284  0.15710214     0.36100
C1130       C  0.00827772  0.59355457  0.11766794    -0.20000
C1131       C  0.01237755  0.61797548  0.09727719    -0.25200
C1132       C  0.00814177  0.64281012  0.11568305     0.27400
H1133       H  0.48585962  0.62356121  0.20580977     0.13200
N1134       N  0.48699170  0.57318401  0.17724795    -0.82500
H1135       H  0.01778280  0.61797486  0.06558852     0.18100
N1136       N  0.00947959  0.66668995  0.09191183    -0.81100
H1137       H  0.47950232  0.57814476  0.20576306     0.33700
H1138       H  0.47105739  0.56578200  0.16036278     0.38200
H1139       H  0.01427910  0.66234857  0.06183569     0.33600
H1140       H  0.99053188  0.67507230  0.09145124     0.30300
H1141       H  0.43591601  0.67425994  0.20460404     0.33700
H1142       H  0.44698356  0.66318056  0.15979520     0.30300
H1143       H  0.04027037  0.73751703  0.15532649     0.38200
H1144       H  0.05610381  0.72462630  0.19589907     0.33700
C1145       C  0.08867450  0.90883428  0.99558560    -0.20100
C1146       C  0.11222656  0.90716224  0.97292945     0.36200
C1147       C  0.13145715  0.88820954  0.98376027    -0.26000
C1148       C  0.12736124  0.87100480  0.01656338     0.02600
C1149       C  0.10338483  0.87212211  0.03817460     0.27400
C1150       C  0.08429378  0.89102116  0.02742943    -0.25200
N1151       N  0.11641961  0.92455618  0.93912847    -0.82500
H1152       H  0.14982600  0.88703135  0.96698586     0.13200
C1153       C  0.14831951  0.85194951  0.02834292     0.02600
N1154       N  0.09863283  0.85415113  0.07111269    -0.81100
H1155       H  0.06616508  0.89239228  0.04481433     0.18000
C1156       C  0.15962893  0.85378769  0.06714447    -0.26000
C1157       C  0.17880073  0.83541722  0.07998712     0.36100
C1158       C  0.18706909  0.81527761  0.05316550    -0.20000
C1159       C  0.17599434  0.81357064  0.01427417    -0.25200
C1160       C  0.15642040  0.83156744  0.00172349     0.27400
H1161       H  0.15323711  0.86944786  0.08752217     0.13200
N1162       N  0.18983603  0.83697237  0.12007463    -0.82500
H1163       H  0.18236995  0.79782991  0.99403192     0.18100
N1164       N  0.14435708  0.82896578  0.96244984    -0.81100
H1165       H  0.18170283  0.85301789  0.13596719     0.33700
H1166       H  0.18419571  0.81978046  0.13552214     0.38200
H1167       H  0.15254632  0.81291583  0.94663896     0.33600
H1168       H  0.12436134  0.82445428  0.96681167     0.30300
H1169       H  0.08011172  0.85775968  0.08409548     0.33700
H1170       H  0.09794376  0.83489930  0.05909635     0.30300
H1171       H  0.10198971  0.92013078  0.91737462     0.38200
H1172       H  0.13472601  0.92065875  0.92564080     0.33700
C1173       C  0.41732769  0.91296758  0.01883193    -0.20100
C1174       C  0.39089580  0.91403804  0.00498140     0.36200
C1175       C  0.37329752  0.89365723  0.01576499    -0.26000
C1176       C  0.38171878  0.87242862  0.03992189     0.02600
C1177       C  0.40793267  0.87140705  0.05410854     0.27400
C1178       C  0.42554877  0.89164532  0.04325666    -0.25200
N1179       N  0.38218493  0.93544385  0.97955010    -0.82500
H1180       H  0.35297484  0.89418679  0.00519706     0.13200
C1181       C  0.36259881  0.85167772  0.05101264     0.02600
N1182       N  0.41644249  0.84989893  0.07957861    -0.81100
H1183       H  0.44570527  0.89102207  0.05455987     0.18000
C1184       C  0.36243644  0.82760423  0.02957017    -0.26000
C1185       C  0.34350596  0.80799634  0.03808340     0.36100
C1186       C  0.32490763  0.81256379  0.06922155    -0.20000
C1187       C  0.32572647  0.83637662  0.09141949    -0.25200
C1188       C  0.34437767  0.85609694  0.08242925     0.27400
H1189       H  0.37671120  0.82443606  0.00559808     0.13200
N1190       N  0.34285373  0.78366029  0.01509001    -0.82500
H1191       H  0.31137314  0.83972588  0.11522237     0.18100
N1192       N  0.34472389  0.88076348  0.10456408    -0.81100
H1193       H  0.35805852  0.78334529  0.99367726     0.33700
H1194       H  0.32502958  0.78321288  0.99895830     0.38200
H1195       H  0.32979606  0.88099414  0.12641914     0.33600
H1196       H  0.36271021  0.88182693  0.12021645     0.30300
H1197       H  0.43641129  0.85208766  0.08733809     0.33700
H1198       H  0.40577662  0.85112308  0.10660245     0.30300
H1199       H  0.39256680  0.93390665  0.95231310     0.38200
H1200       H  0.36212723  0.93330966  0.97235307     0.33700
C1201       C  0.41888280  0.58836464  0.01276293    -0.20100
C1202       C  0.42578040  0.61013676  0.03822712     0.36200
C1203       C  0.40621959  0.62773013  0.05111943    -0.26000
C1204       C  0.37978034  0.62381101  0.04023833     0.02600
C1205       C  0.37255595  0.60208039  0.01565808     0.27400
C1206       C  0.39226121  0.58474192  0.00160577    -0.25200
N1207       N  0.45201236  0.61407717  0.05370071    -0.82500
H1208       H  0.41159905  0.64433985  0.07048986     0.13200
C1209       C  0.35978362  0.64277338  0.05471186     0.02600
N1210       N  0.34517710  0.59743502  0.00599533    -0.81100
H1211       H  0.38671691  0.56790141  0.98285124     0.18000
C1212       C  0.34801800  0.65984324  0.02671521    -0.26000
C1213       C  0.32872815  0.67803593  0.03869044     0.36100
C1214       C  0.32157391  0.67960327  0.08011745    -0.20000
C1215       C  0.33333453  0.66242036  0.10824637    -0.25200
C1216       C  0.35231376  0.64370553  0.09573398     0.27400
H1217       H  0.35375629  0.65884850  0.99514087     0.13200
N1218       N  0.31682362  0.69436445  0.00791589    -0.82500
H1219       H  0.32741971  0.66343554  0.13971519     0.18100
N1220       N  0.36381639  0.62544124  0.12415343    -0.81100
H1221       H  0.30674834  0.68173084  0.98792475     0.33700
H1222       H  0.30271575  0.70741750  0.01956486     0.38200
H1223       H  0.35604112  0.62860442  0.15306765     0.33600
H1224       H  0.35817053  0.60623325  0.11545371     0.30300
H1225       H  0.34316595  0.58046458  0.98786380     0.33700
H1226       H  0.33534269  0.59339251  0.03310689     0.30300
H1227       H  0.46489663  0.61779828  0.02970840     0.38200
H1228       H  0.45784052  0.59689354  0.06900918     0.33700
C1229       C  0.18523821  0.68023199  0.06507016    -0.20100
C1230       C  0.16980136  0.66570373  0.09264171     0.36200
C1231       C  0.15199512  0.64671943  0.07799278    -0.26000
C1232       C  0.14904946  0.64246576  0.03622883     0.02600
C1233       C  0.16388411  0.65749484  0.00853884     0.27400
C1234       C  0.18202427  0.67625393  0.02331298    -0.25200
N1235       N  0.17171395  0.67012239  0.13539613    -0.82500
H1236       H  0.14024049  0.63535086  0.09917872     0.13200
C1237       C  0.13024515  0.62218143  0.02197499     0.02600
N1238       N  0.16046814  0.65353193  0.96571984    -0.81100
H1239       H  0.19384268  0.68774202  0.00236174     0.18000
C1240       C  0.10659014  0.63024221  0.00371666    -0.26000
C1241       C  0.08753280  0.61151777  0.99207341     0.36100
C1242       C  0.09202511  0.58422568  0.99950858    -0.20000
C1243       C  0.11640377  0.57622039  0.01620965    -0.25200
C1244       C  0.13569373  0.59499085  0.02710901     0.27400
H1245       H  0.10277217  0.65121174  0.99897374     0.13200
N1246       N  0.06376809  0.62034879  0.97254273    -0.82500
H1247       H  0.12021826  0.55535235  0.02177657     0.18100
N1248       N  0.16069874  0.58668459  0.04366795    -0.81100
H1249       H  0.06906344  0.63053164  0.94624882     0.33700
H1250       H  0.05419415  0.63373254  0.99187700     0.38200
H1251       H  0.16157669  0.56595496  0.04556175     0.33600
H1252       H  0.17544322  0.59238771  0.02329727     0.30300
H1253       H  0.17274998  0.66637332  0.94951580     0.33700
H1254       H  0.16664443  0.63419735  0.95885076     0.30300
H1255       H  0.16715860  0.69004854  0.14126583     0.38200
H1256       H  0.19128201  0.66674285  0.14434016     0.33700
C1257       C  0.27773206  0.50029706  0.76525008    -0.20100
C1258       C  0.30229416  0.98333086  0.76276213     0.36200
C1259       C  0.32566300  0.98560109  0.78564908    -0.26000
C1260       C  0.32781322  0.50369413  0.80828152     0.02600
C1261       C  0.30684037  0.52127303  0.81762028     0.27400
C1262       C  0.28227899  0.51938682  0.79631115    -0.25200
N1263       N  0.30339133  0.96566683  0.72865547    -0.82500
H1264       H  0.34229189  0.97281976  0.77836475     0.13200
C1265       C  0.35398186  0.50336688  0.83033957     0.02600
N1266       N  0.31070096  0.54132883  0.84814060    -0.81100
H1267       H  0.26666794  0.53336942  0.80348195     0.18000
C1268       C  0.37502839  0.51986431  0.81801655    -0.26000
C1269       C  0.40051335  0.51825057  0.83632374     0.36100
C1270       C  0.40508722  0.49989728  0.86792562    -0.20000
C1271       C  0.38364214  0.98815226  0.89106279    -0.25200
C1272       C  0.35845741  0.98937710  0.87281012     0.27400
H1273       H  0.37158193  0.53394797  0.79385028     0.13200
N1274       N  0.42152968  0.53543721  0.82333490    -0.82500
H1275       H  0.38611564  0.97605148  0.91780910     0.18100
N1276       N  0.33694832  0.97378165  0.88843335    -0.81100
H1277       H  0.41511398  0.54753298  0.79959105     0.33700
H1278       H  0.42624343  0.54811054  0.84745771     0.38200
H1279       H  0.34318918  0.96251022  0.91320719     0.33600
H1280       H  0.32254481  0.98687988  0.89928056     0.30300
H1281       H  0.29367235  0.55297000  0.85119115     0.33700
H1282       H  0.31352565  0.53167657  0.87577565     0.30300
H1283       H  0.30759476  0.94653298  0.73916594     0.38200
H1284       H  0.31895095  0.97152302  0.70986801     0.33700
C1285       C  0.09252196  0.50141688  0.85423259    -0.20100
C1286       C  0.10272839  0.97858682  0.83475189     0.36200
C1287       C  0.12839549  0.97781824  0.81733221    -0.26000
C1288       C  0.14554200  0.50033977  0.82292948     0.02600
C1289       C  0.13383603  0.52462184  0.83525331     0.27400
C1290       C  0.10776548  0.52482424  0.85128221    -0.25200
N1291       N  0.08494913  0.95673963  0.82889667    -0.82500
H1292       H  0.13385716  0.96105481  0.79842334     0.13200
C1293       C  0.17279456  0.49934534  0.80412689     0.02600
N1294       N  0.14832755  0.54905704  0.83104098    -0.81100
H1295       H  0.09962807  0.54323882  0.86299345     0.18000
C1296       C  0.17675718  0.99834436  0.76467372    -0.26000
C1297       C  0.20155086  0.99930018  0.74547004     0.36100
C1298       C  0.22368709  0.49926310  0.76411762    -0.20000
C1299       C  0.22167906  0.49743746  0.80677844    -0.25200
C1300       C  0.19662545  0.49757159  0.82682578     0.27400
H1301       H  0.15894949  0.99962305  0.74640454     0.13200
N1302       N  0.20197835  0.00200279  0.70233800    -0.82500
H1303       H  0.23944910  0.49569711  0.82479363     0.18100
N1304       N  0.19532988  0.49515724  0.87009167    -0.81100
H1305       H  0.19193245  0.98580132  0.68964853     0.33700
H1306       H  0.19171879  0.01932027  0.69461584     0.38200
H1307       H  0.21434717  0.49346303  0.88237256     0.33600
H1308       H  0.18732913  0.51274341  0.88169405     0.30300
H1309       H  0.13685900  0.56517571  0.84068866     0.33700
H1310       H  0.16472194  0.54827647  0.85032651     0.30300
H1311       H  0.08180739  0.95440215  0.79779848     0.38200
H1312       H  0.09422335  0.93953480  0.83955088     0.33700
C1313       C  0.99331570  0.59563444  0.86496227    -0.20100
C1314       C  0.47764027  0.61494610  0.87711584     0.36200
C1315       C  0.47794319  0.64014108  0.85870348    -0.26000
C1316       C  0.49436699  0.64563947  0.82563337     0.02600
C1317       C  0.00776857  0.62528078  0.81007566     0.27400
C1318       C  0.00801598  0.60010114  0.82953876    -0.25200
N1319       N  0.46014637  0.61041316  0.91047495    -0.82500
H1320       H  0.46544093  0.65573264  0.87088204     0.13200
C1321       C  0.49451677  0.67338709  0.80806561     0.02600
N1322       N  0.02319169  0.62952297  0.77420376    -0.81100
H1323       H  0.02051606  0.58432642  0.81796504     0.18000
C1324       C  0.01645242  0.68843215  0.80592104    -0.26000
C1325       C  0.01772866  0.71365089  0.78719221     0.36100
C1326       C  0.49597549  0.72534721  0.77126908    -0.20000
C1327       C  0.47200218  0.71100511  0.77603240    -0.25200
C1328       C  0.47119092  0.68518227  0.79283246     0.27400
H1329       H  0.03424767  0.68011085  0.81916566     0.13200
N1330       N  0.04231021  0.72781832  0.78786645    -0.82500
H1331       H  0.45351478  0.71959445  0.76616245     0.18100
N1332       N  0.44665505  0.67072047  0.79394282    -0.81100
H1333       H  0.04742605  0.73132076  0.81809365     0.33700
H1334       H  0.05692687  0.71562909  0.77526970     0.38200
H1335       H  0.43122539  0.68209186  0.78190355     0.33600
H1336       H  0.44868934  0.65409825  0.77509978     0.30300
H1337       H  0.03332962  0.61217562  0.76617609     0.33700
H1338       H  0.01003840  0.63359082  0.75053140     0.30300
H1339       H  0.46463052  0.62418651  0.93327419     0.38200
H1340       H  0.44077917  0.61398340  0.90066482     0.33700
C1341       C  0.50157126  0.77535096  0.77435587    -0.20100
C1342       C  0.48048553  0.78500812  0.79881924     0.36200
C1343       C  0.48226974  0.81026487  0.81799644    -0.26000
C1344       C  0.00346598  0.82563220  0.80772002     0.02600
C1345       C  0.02612087  0.81401099  0.79000588     0.27400
C1346       C  0.02487731  0.78791090  0.77441337    -0.25200
N1347       N  0.45655863  0.76998513  0.80250072    -0.82500
H1348       H  0.46539135  0.81764427  0.83478986     0.13200
C1349       C  0.00409189  0.85368387  0.82430078     0.02600
N1350       N  0.05020686  0.82906551  0.78649380    -0.81100
H1351       H  0.04305179  0.77915802  0.76361789     0.18000
C1352       C  0.02425578  0.86093841  0.85149711    -0.26000
C1353       C  0.02561090  0.88660276  0.86856593     0.36100
C1354       C  0.00611665  0.90587570  0.85906983    -0.20000
C1355       C  0.48542969  0.89903172  0.83998133    -0.25200
C1356       C  0.48517216  0.87329903  0.82186679     0.27400
H1357       H  0.03873870  0.84618881  0.86043270     0.13200
N1358       N  0.04625160  0.89294940  0.89711133    -0.82500
H1359       H  0.46922161  0.91264511  0.83441191     0.18100
N1360       N  0.46441291  0.86605347  0.79413241    -0.81100
H1361       H  0.05880523  0.87667615  0.90148478     0.33700
H1362       H  0.05776121  0.90804948  0.88449295     0.38200
H1363       H  0.45119838  0.88184268  0.79032373     0.33600
H1364       H  0.47312081  0.86259909  0.76591635     0.30300
H1365       H  0.06500234  0.81776220  0.77256012     0.33700
H1366       H  0.04637216  0.84506675  0.76723233     0.30300
H1367       H  0.45353822  0.76611143  0.83320188     0.38200
H1368       H  0.44082838  0.78174083  0.79236813     0.33700
C1369       C  0.34263090  0.75902361  0.61825651    -0.20100
C1370       C  0.36309381  0.77692331  0.60685947     0.36200
C1371       C  0.38831706  0.77577408  0.62565676    -0.26000
C1372       C  0.39420910  0.75705958  0.65585074     0.02600
C1373       C  0.37347877  0.73999498  0.66848056     0.27400
C1374       C  0.34809280  0.74108596  0.64978045    -0.25200
N1375       N  0.35834054  0.79594988  0.57527664    -0.82500
H1376       H  0.40376382  0.78921562  0.61586065     0.13200
C1377       C  0.42188712  0.75605096  0.67412821     0.02600
N1378       N  0.37808437  0.72146907  0.70049674    -0.81100
H1379       H  0.33300293  0.72701003  0.65877831     0.18000
C1380       C  0.43375382  0.77933461  0.68935978    -0.26000
C1381       C  0.45890312  0.77910502  0.70850501     0.36100
C1382       C  0.47246720  0.75460268  0.71563562    -0.20000
C1383       C  0.46246303  0.73238086  0.69381063    -0.25200
C1384       C  0.43736685  0.73260941  0.67431177     0.27400
H1385       H  0.42339631  0.79809219  0.68638398     0.13200
N1386       N  0.47092563  0.80413230  0.71812882    -0.82500
H1387       H  0.47362110  0.71403064  0.69402459     0.18100
N1388       N  0.42768285  0.70906616  0.65442289    -0.81100
H1389       H  0.45788827  0.81490563  0.73644614     0.33700
H1390       H  0.47324852  0.81472446  0.69120831     0.38200
H1391       H  0.42627388  0.71320376  0.62350364     0.33600
H1392       H  0.44121628  0.69346147  0.65739790     0.30300
H1393       H  0.36455180  0.72549056  0.72360332     0.33700
H1394       H  0.37418207  0.70237039  0.68937542     0.30300
H1395       H  0.34361480  0.80896599  0.58538124     0.38200
H1396       H  0.37522021  0.80746759  0.57009405     0.33700
C1397       C  0.02143088  0.74831970  0.70853205    -0.20100
C1398       C  0.03508706  0.72461424  0.69722257     0.36200
C1399       C  0.06064690  0.72595602  0.67954376    -0.26000
C1400       C  0.07302195  0.75042590  0.67110264     0.02600
C1401       C  0.05760431  0.77376008  0.67643565     0.27400
C1402       C  0.03141893  0.77197901  0.69128887    -0.25200
N1403       N  0.02277613  0.69913424  0.70147376    -0.82500
H1404       H  0.07080018  0.70760727  0.67215333     0.13200
C1405       C  0.10097317  0.75138584  0.65383963     0.02600
N1406       N  0.06896094  0.79949030  0.66893962    -0.81100
H1407       H  0.02020423  0.79014057  0.69463026     0.18000
C1408       C  0.10607774  0.76764656  0.62029062    -0.26000
C1409       C  0.13140251  0.76952302  0.60277408     0.36100
C1410       C  0.15263818  0.75361135  0.61719316    -0.20000
C1411       C  0.14792657  0.73742415  0.65109259    -0.25200
C1412       C  0.12250987  0.73643081  0.66984823     0.27400
H1413       H  0.08997286  0.77875702  0.60685369     0.13200
N1414       N  0.13551958  0.78729338  0.56931461    -0.82500
H1415       H  0.16379181  0.72490854  0.66217647     0.18100
N1416       N  0.11852274  0.72014785  0.70493198    -0.81100
H1417       H  0.11810828  0.79746105  0.56201943     0.33700
H1418       H  0.14924263  0.80166003  0.57857276     0.38200
H1419       H  0.13604778  0.71036766  0.71280229     0.33600
H1420       H  0.11387716  0.73278642  0.72909742     0.30300
H1421       H  0.05522680  0.81459127  0.67465929     0.33700
H1422       H  0.08442099  0.80221275  0.68965970     0.30300
H1423       H  0.03542935  0.68690151  0.71818902     0.38200
H1424       H  0.02088162  0.69073045  0.67261413     0.33700
C1425       C  0.24668972  0.65863377  0.62254079    -0.20100
C1426       C  0.22854727  0.63789332  0.61415637     0.36200
C1427       C  0.23064134  0.61337493  0.63416720    -0.26000
C1428       C  0.25074082  0.60866453  0.66257685     0.02600
C1429       C  0.26832626  0.62963609  0.67247595     0.27400
C1430       C  0.26620674  0.65441794  0.65225493    -0.25200
N1431       N  0.20807558  0.64157048  0.58459779    -0.82500
H1432       H  0.21664112  0.59770455  0.62698737     0.13200
C1433       C  0.25183704  0.58207339  0.68300518     0.02600
N1434       N  0.28835945  0.62559339  0.70275043    -0.81100
H1435       H  0.28043467  0.67003005  0.65850508     0.18000
C1436       C  0.27178798  0.56355453  0.67401512    -0.26000
C1437       C  0.27197826  0.53771537  0.69123186     0.36100
C1438       C  0.25117500  0.52916060  0.71737430    -0.20000
C1439       C  0.23260774  0.54943106  0.72832493    -0.25200
C1440       C  0.23238548  0.57497176  0.71107250     0.27400
H1441       H  0.28745445  0.56918310  0.65341449     0.13200
N1442       N  0.29411897  0.52084182  0.68316260    -0.82500
H1443       H  0.21823202  0.54633679  0.75183720     0.18100
N1444       N  0.21252014  0.59405444  0.72258092    -0.81100
H1445       H  0.31105854  0.53026558  0.69448988     0.33700
H1446       H  0.29642410  0.51920234  0.65183490     0.38200
H1447       H  0.19924708  0.58588348  0.74332898     0.33600
H1448       H  0.22209501  0.60974461  0.73745468     0.30300
H1449       H  0.29972445  0.64280981  0.70647467     0.33700
H1450       H  0.27875259  0.62236256  0.73029353     0.30300
H1451       H  0.21038038  0.62702189  0.56218694     0.38200
H1452       H  0.18980997  0.63847810  0.59862669     0.33700
C1453       C  0.24387270  0.84527629  0.61840662    -0.20100
C1454       C  0.26032995  0.84845365  0.65270098     0.36200
C1455       C  0.26171713  0.87352520  0.67245623    -0.26000
C1456       C  0.24631706  0.89543889  0.65964555     0.02600
C1457       C  0.22851702  0.89149119  0.62707112     0.27400
C1458       C  0.22791456  0.86685818  0.60654438    -0.25200
N1459       N  0.27612973  0.82655639  0.66668903    -0.82500
H1460       H  0.27545477  0.87611725  0.69736670     0.13200
C1461       C  0.24869643  0.92224137  0.68041502     0.02600
N1462       N  0.21093087  0.91250524  0.61497824    -0.81100
H1463       H  0.21484818  0.86448104  0.58075528     0.18000
C1464       C  0.25067603  0.94584879  0.65762327    -0.26000
C1465       C  0.25136858  0.97138946  0.67598967     0.36100
C1466       C  0.25173861  0.97390495  0.71891072    -0.20000
C1467       C  0.24972867  0.94983421  0.74122490    -0.25200
C1468       C  0.24794333  0.92466433  0.72281342     0.27400
H1469       H  0.25127065  0.94457133  0.62490509     0.13200
N1470       N  0.25050584  0.99422550  0.65042883    -0.82500
H1471       H  0.24964994  0.95061106  0.77400495     0.18100
N1472       N  0.24457029  0.90163719  0.74764135    -0.81100
H1473       H  0.23294952  0.99343818  0.63365065     0.33700
H1474       H  0.26610761  0.99276857  0.62982423     0.38200
H1475       H  0.26063743  0.90057851  0.76759249     0.33600
H1476       H  0.22738716  0.90421547  0.76478827     0.30300
H1477       H  0.19916424  0.90654013  0.59051330     0.33700
H1478       H  0.19808187  0.91622909  0.63910555     0.30300
H1479       H  0.29003009  0.82215721  0.64425549     0.38200
H1480       H  0.28681483  0.83197449  0.69257913     0.33700
C1481       C  0.33581989  0.66345536  0.50556051    -0.20100
C1482       C  0.32922473  0.63952417  0.52561162     0.36200
C1483       C  0.34920514  0.62182548  0.53676666    -0.26000
C1484       C  0.37573206  0.62740906  0.52860357     0.02600
C1485       C  0.38252391  0.65060122  0.50718998     0.27400
C1486       C  0.36245119  0.66849362  0.49592672    -0.25200
N1487       N  0.30240901  0.63345278  0.53624851    -0.82500
H1488       H  0.34400401  0.60375105  0.55266366     0.13200
C1489       C  0.39601107  0.60865288  0.54318535     0.02600
N1490       N  0.40973255  0.65605180  0.49765103    -0.81100
H1491       H  0.36767578  0.68662568  0.48025260     0.18000
C1492       C  0.41049665  0.59392469  0.51489005    -0.26000
C1493       C  0.42854159  0.57462508  0.52766499     0.36100
C1494       C  0.43285150  0.57059716  0.56929242    -0.20000
C1495       C  0.41844035  0.58531559  0.59776524    -0.25200
C1496       C  0.39969072  0.60417761  0.58502136     0.27400
H1497       H  0.40723084  0.59691912  0.48278952     0.13200
N1498       N  0.44227661  0.55874657  0.49838985    -0.82500
H1499       H  0.42161412  0.58179972  0.62974620     0.18100
N1500       N  0.38413963  0.61858266  0.61416611    -0.81100
H1501       H  0.42817614  0.54878215  0.48075124     0.33700
H1502       H  0.45288791  0.57148992  0.47950436     0.38200
H1503       H  0.38895567  0.61265811  0.64357519     0.33600
H1504       H  0.38917464  0.63868196  0.61192406     0.30300
H1505       H  0.41133049  0.67382740  0.48152947     0.33700
H1506       H  0.41988093  0.65888885  0.52494887     0.30300
H1507       H  0.29735697  0.61526437  0.52286370     0.38200
H1508       H  0.30139660  0.63124989  0.56766884     0.33700
C1509       C  0.07102790  0.56404122  0.56981641    -0.20100
C1510       C  0.07873160  0.56698732  0.52905757     0.36200
C1511       C  0.09879966  0.58471652  0.51932495    -0.26000
C1512       C  0.11149334  0.59958109  0.54950041     0.02600
C1513       C  0.10456151  0.59614623  0.59050897     0.27400
C1514       C  0.08414036  0.57834305  0.60035272    -0.25200
N1515       N  0.06607938  0.55254770  0.49692258    -0.82500
H1516       H  0.10399780  0.58752481  0.48781155     0.13200
C1517       C  0.13025325  0.62027862  0.53688701     0.02600
N1518       N  0.11811129  0.61090840  0.62164023    -0.81100
H1519       H  0.07829815  0.57571142  0.63161295     0.18000
C1520       C  0.12372611  0.64686187  0.54437807    -0.26000
C1521       C  0.13992004  0.66739245  0.53063962     0.36100
C1522       C  0.16327902  0.66121636  0.50911616    -0.20000
C1523       C  0.16940267  0.63450584  0.50073885    -0.25200
C1524       C  0.15311747  0.61392485  0.51454837     0.27400
H1525       H  0.10577826  0.65171338  0.56074552     0.13200
N1526       N  0.13280962  0.69437759  0.53956820    -0.82500
H1527       H  0.18723891  0.62962760  0.48413479     0.18100
N1528       N  0.15973362  0.58663591  0.50631532    -0.81100
H1529       H  0.13146560  0.69654187  0.57098416     0.33700
H1530       H  0.11410658  0.69801042  0.52712924     0.38200
H1531       H  0.17707910  0.58540621  0.48920158     0.33600
H1532       H  0.16375426  0.57750286  0.53402771     0.30300
H1533       H  0.11061208  0.60606155  0.65014355     0.33700
H1534       H  0.13794074  0.60493264  0.62144251     0.30300
H1535       H  0.04590241  0.55711743  0.49700096     0.38200
H1536       H  0.06828563  0.53221442  0.50236069     0.33700
C1537       C  0.06699761  0.93367369  0.40863138    -0.20100
C1538       C  0.07866746  0.91590737  0.38111322     0.36200
C1539       C  0.09630990  0.89654328  0.39536533    -0.26000
C1540       C  0.10187144  0.89434576  0.43692854     0.02600
C1541       C  0.09000464  0.91214053  0.46454993     0.27400
C1542       C  0.07304450  0.93198160  0.44996618    -0.25200
N1543       N  0.07225215  0.91724614  0.33893906    -0.82500
H1544       H  0.10549898  0.88300650  0.37400972     0.13200
C1545       C  0.12041406  0.87357493  0.45107769     0.02600
N1546       N  0.09461245  0.90944986  0.50730461    -0.81100
H1547       H  0.06348817  0.94546743  0.47102446     0.18000
C1548       C  0.14306237  0.88117350  0.47279153    -0.26000
C1549       C  0.16172294  0.86229614  0.48513736     0.36100
C1550       C  0.15813544  0.83529248  0.47470897    -0.20000
C1551       C  0.13488183  0.82758422  0.45430275    -0.25200
C1552       C  0.11583754  0.84644375  0.44276550     0.27400
H1553       H  0.14644389  0.90196861  0.47983350     0.13200
N1554       N  0.18410546  0.87065830  0.50864313    -0.82500
H1555       H  0.13179976  0.80687613  0.44643094     0.18100
N1556       N  0.09192739  0.83822476  0.42258974    -0.81100
H1557       H  0.19450350  0.88491383  0.49211983     0.33700
H1558       H  0.17704009  0.87977609  0.53497424     0.38200
H1559       H  0.09165759  0.81758823  0.41860076     0.33600
H1560       H  0.07608213  0.84287591  0.44165622     0.30300
H1561       H  0.08429495  0.92405732  0.52342751     0.33700
H1562       H  0.08677147  0.89113820  0.51617516     0.30300
H1563       H  0.06436625  0.89887547  0.33017199     0.38200
H1564       H  0.08982672  0.92015792  0.32291395     0.33700
C1565       C  0.33174352  0.83925726  0.48189397    -0.20100
C1566       C  0.32459840  0.86542038  0.47061309     0.36200
C1567       C  0.34428179  0.88332311  0.45943536    -0.26000
C1568       C  0.37085639  0.87568557  0.45934464     0.02600
C1569       C  0.37832976  0.85020606  0.47242376     0.27400
C1570       C  0.35866495  0.83223407  0.48374062    -0.25200
N1571       N  0.29748895  0.87380164  0.46918195    -0.82500
H1572       H  0.33876716  0.90321968  0.45011198     0.13200
C1573       C  0.39063122  0.89477494  0.44549875     0.02600
N1574       N  0.40575228  0.84253526  0.47317731    -0.81100
H1575       H  0.36445614  0.81235738  0.49260072     0.18000
C1576       C  0.40962258  0.90385840  0.47311693    -0.26000
C1577       C  0.42819165  0.92269507  0.46157967     0.36100
C1578       C  0.42776432  0.93251327  0.42166875    -0.20000
C1579       C  0.40881485  0.92346349  0.39392375    -0.25200
C1580       C  0.39011521  0.90446122  0.40550842     0.27400
H1581       H  0.40971334  0.89654352  0.50394277     0.13200
N1582       N  0.44693086  0.93196893  0.49104544    -0.82500
H1583       H  0.40868354  0.93128050  0.36340320     0.18100
N1584       N  0.37061444  0.89498625  0.37712380    -0.81100
H1585       H  0.46599561  0.92785765  0.48055457     0.33700
H1586       H  0.44486061  0.95256867  0.49395678     0.38200
H1587       H  0.37287179  0.90434494  0.34913804     0.33600
H1588       H  0.37414599  0.87473845  0.37228235     0.30300
H1589       H  0.40785159  0.82314837  0.48405042     0.33700
H1590       H  0.41252950  0.84234931  0.44330594     0.30300
H1591       H  0.29533410  0.89025183  0.48835413     0.38200
H1592       H  0.29315026  0.87983583  0.43964433     0.33700
C1593       C  0.15321474  0.74257456  0.36327195    -0.20100
C1594       C  0.13479504  0.72222983  0.37201089     0.36200
C1595       C  0.10911504  0.72286782  0.35553669    -0.26000
C1596       C  0.10094163  0.74332760  0.32956544     0.02600
C1597       C  0.11955356  0.76339114  0.31953781     0.27400
C1598       C  0.14540087  0.76292285  0.33671665    -0.25200
N1599       N  0.14201111  0.70101206  0.39869571    -0.82500
H1600       H  0.09524187  0.70741761  0.36389535     0.13200
C1601       C  0.07304681  0.74305153  0.31296049     0.02600
N1602       N  0.11207575  0.78429182  0.29228185    -0.81100
H1603       H  0.15904600  0.77904087  0.33072112     0.18000
C1604       C  0.05613635  0.76495816  0.31858408    -0.26000
C1605       C  0.03040368  0.76561645  0.30145660     0.36100
C1606       C  0.02142994  0.74463242  0.27576867    -0.20000
C1607       C  0.03671368  0.72095987  0.27720487    -0.25200
C1608       C  0.06258617  0.72035173  0.29338753     0.27400
H1609       H  0.06300770  0.78184828  0.33616047     0.13200
N1610       N  0.01397880  0.78822083  0.30904940    -0.82500
H1611       H  0.02918539  0.70273031  0.26426336     0.18100
N1612       N  0.07853753  0.69684014  0.28889873    -0.81100
H1613       H  0.02414475  0.80528734  0.29998768     0.33700
H1614       H  0.01092704  0.78957586  0.34027688     0.38200
H1615       H  0.06802688  0.68182238  0.27391215     0.33600
H1616       H  0.09454773  0.70167577  0.27033712     0.30300
H1617       H  0.12781984  0.79749101  0.28813708     0.33700
H1618       H  0.10823630  0.77559080  0.26407089     0.30300
H1619       H  0.12886363  0.70106387  0.42309419     0.38200
H1620       H  0.13965099  0.68305432  0.38303557     0.33700
C1621       C  0.34119369  0.75068144  0.36315506    -0.20100
C1622       C  0.34879156  0.73009346  0.33636503     0.36200
C1623       C  0.37469979  0.73005330  0.31957274    -0.26000
C1624       C  0.39345379  0.74981259  0.32987141     0.02600
C1625       C  0.38572999  0.77000564  0.35715200     0.27400
C1626       C  0.35988838  0.77049747  0.37275748    -0.25200
N1627       N  0.33086575  0.70853075  0.32830590    -0.82500
H1628       H  0.38041219  0.71435356  0.29882305     0.13200
C1629       C  0.42080409  0.74983107  0.31155801     0.02600
N1630       N  0.40454276  0.78940955  0.37082320    -0.81100
H1631       H  0.35478874  0.78588731  0.39447738     0.18000
C1632       C  0.42997713  0.77283371  0.29244833    -0.26000
C1633       C  0.45541028  0.77437290  0.27527869     0.36100
C1634       C  0.47176946  0.75117653  0.27230897    -0.20000
C1635       C  0.46357762  0.72917283  0.29599410    -0.25200
C1636       C  0.43846223  0.72819351  0.31515608     0.27400
H1637       H  0.41744677  0.79031735  0.29171932     0.13200
N1638       N  0.46476686  0.80021327  0.26425213    -0.82500
H1639       H  0.47645244  0.71200183  0.29792753     0.18100
N1640       N  0.43095354  0.70537403  0.33849332    -0.81100
H1641       H  0.46485496  0.81217758  0.29020786     0.33700
H1642       H  0.45123675  0.80855902  0.24392576     0.38200
H1643       H  0.44612683  0.69123658  0.33847543     0.33600
H1644       H  0.42868747  0.71162705  0.36852042     0.30300
H1645       H  0.39710053  0.80827270  0.36404333     0.33700
H1646       H  0.40613258  0.78793879  0.40230757     0.30300
H1647       H  0.31461778  0.71628362  0.31266672     0.38200
H1648       H  0.33968380  0.69453607  0.30912832     0.33700
C1649       C  0.24358761  0.84317059  0.36096885    -0.20100
C1650       C  0.22832309  0.86499785  0.37513467     0.36200
C1651       C  0.23153635  0.89048780  0.35835163    -0.26000
C1652       C  0.24749874  0.89505775  0.32433539     0.02600
C1653       C  0.26106178  0.87266857  0.30758531     0.27400
C1654       C  0.25950667  0.84725503  0.32663274    -0.25200
N1655       N  0.20970637  0.86126272  0.40750254    -0.82500
H1656       H  0.22167577  0.90702834  0.37287039     0.13200
C1657       C  0.24989996  0.92324194  0.30746265     0.02600
N1658       N  0.27653452  0.87574647  0.27146784    -0.81100
H1659       H  0.27128718  0.83086529  0.31528039     0.18000
C1660       C  0.27465123  0.93305976  0.29513765    -0.26000
C1661       C  0.27759339  0.95828183  0.27680289     0.36100
C1662       C  0.25497225  0.97475024  0.26927516    -0.20000
C1663       C  0.23169906  0.96722208  0.29000410    -0.25200
C1664       C  0.22820134  0.94127078  0.30573665     0.27400
H1665       H  0.29219924  0.92112817  0.30008884     0.13200
N1666       N  0.30395031  0.96731887  0.26884187    -0.82500
H1667       H  0.21477218  0.98042715  0.28885868     0.18100
N1668       N  0.20217834  0.93290674  0.31772713    -0.81100
H1669       H  0.31426720  0.96799888  0.29630203     0.33700
H1670       H  0.31333881  0.95317733  0.25055792     0.38200
H1671       H  0.18849513  0.94836017  0.31455536     0.33600
H1672       H  0.19622553  0.91781734  0.29784316     0.30300
H1673       H  0.28522775  0.85767982  0.26312523     0.33700
H1674       H  0.26358671  0.88094542  0.24805953     0.30300
H1675       H  0.19519364  0.84804560  0.39711679     0.38200
H1676       H  0.19992977  0.87902792  0.41438202     0.33700
C1677       C  0.24844501  0.65187451  0.36712593    -0.20100
C1678       C  0.25072806  0.65012763  0.32443809     0.36200
C1679       C  0.25007476  0.62473362  0.30495688    -0.26000
C1680       C  0.24767702  0.60084279  0.32708179     0.02600
C1681       C  0.24527761  0.60259621  0.36939402     0.27400
C1682       C  0.24569081  0.62762396  0.38860277    -0.25200
N1683       N  0.25386484  0.67387056  0.30094822    -0.82500
H1684       H  0.25191644  0.62351863  0.27234431     0.13200
C1685       C  0.24781136  0.57398653  0.30632004     0.02600
N1686       N  0.24212192  0.57879856  0.39291988    -0.81100
H1687       H  0.24358631  0.62787130  0.42119248     0.18000
C1688       C  0.26760202  0.55530283  0.31547960    -0.26000
C1689       C  0.26877384  0.53023010  0.29594330     0.36100
C1690       C  0.25027801  0.52329612  0.26491953    -0.20000
C1691       C  0.22806336  0.54054568  0.26140102    -0.25200
C1692       C  0.22725849  0.56597153  0.28008695     0.27400
H1693       H  0.28273872  0.56043046  0.33746543     0.13200
N1694       N  0.28972666  0.51239793  0.30651136    -0.82500
H1695       H  0.21115990  0.53482841  0.24346393     0.18100
N1696       N  0.20548296  0.58368766  0.27255068    -0.81100
H1697       H  0.28801369  0.50798780  0.33728145     0.33700
H1698       H  0.30778017  0.52216116  0.30227842     0.38200
H1699       H  0.19207673  0.57517401  0.25211170     0.33600
H1700       H  0.19534035  0.58631007  0.29981944     0.30300
H1701       H  0.24090213  0.58329189  0.42379029     0.33700
H1702       H  0.22402098  0.57020693  0.38475604     0.30300
H1703       H  0.27218306  0.68218191  0.30862309     0.38200
H1704       H  0.25476652  0.66921972  0.27010766     0.33700
O1705       O  0.74833314  0.20300033  0.37386096    -0.86700
O1706       O  0.74657978  0.20423333  0.60668363    -0.86800
O1707       O  0.78938777  0.17581432  0.48598635    -0.88500
O1708       O  0.70592060  0.17360926  0.48856276    -0.87300
O1709       O  0.67362770  0.20519774  0.48713524    -0.86800
O1710       O  0.82175835  0.20728120  0.48430757    -0.88200
O1711       O  0.74706881  0.17407323  0.55423807    -0.86700
O1712       O  0.74839760  0.17467938  0.42811238    -0.86300
Zr1713     Zr  0.74751173  0.19788137  0.49119060     2.84300
O1714       O  0.72039815  0.22306698  0.53315124    -1.08300
O1715       O  0.77360384  0.22406939  0.44889043    -1.09000
C1716       C  0.74807638  0.17923767  0.38992613     1.06400
C1717       C  0.74650616  0.17999628  0.59214130     1.06400
C1718       C  0.81358357  0.18296860  0.48193335     1.09400
C1719       C  0.68144891  0.18078710  0.48701842     1.07100
H1720       H  0.78517864  0.21244423  0.55026314     0.32700
O1721       O  0.77389603  0.22372392  0.53421734    -1.29200
H1722       H  0.71092790  0.21116919  0.43065867     0.32400
O1723       O  0.72187349  0.22285960  0.44664699    -1.30900
O1724       O  0.74613744  0.29677340  0.60451766    -0.86700
O1725       O  0.74570385  0.29576646  0.37215447    -0.88200
O1726       O  0.82216216  0.25163232  0.55651463    -0.86700
O1727       O  0.67165066  0.24800199  0.55116116    -0.86800
O1728       O  0.67172316  0.24707897  0.42568623    -0.86500
O1729       O  0.82384670  0.25211426  0.42914908    -0.86300
O1730       O  0.78840500  0.32465068  0.49064709    -0.86700
O1731       O  0.70350983  0.32293166  0.48952892    -0.86100
O1732       O  0.82119605  0.29362462  0.49379353    -0.87200
O1733       O  0.67182910  0.29059901  0.48957079    -0.86400
O1734       O  0.79174980  0.25176901  0.60833141    -0.86800
O1735       O  0.79476034  0.25003163  0.37544903    -0.86500
O1736       O  0.70170160  0.24751338  0.37327037    -0.86100
O1737       O  0.70010545  0.25116647  0.60528503    -0.86500
O1738       O  0.74638234  0.32630375  0.55138681    -0.86800
O1739       O  0.74571637  0.32504735  0.42544099    -0.88200
Zr1740     Zr  0.74643842  0.25015644  0.57637776     2.83100
Zr1741     Zr  0.74794775  0.24952382  0.40309399     2.83500
Zr1742     Zr  0.79969227  0.25030364  0.49159368     2.84100
Zr1743     Zr  0.69520363  0.24853446  0.48854122     2.83400
Zr1744     Zr  0.74646059  0.30163003  0.48880162     2.84200
O1745       O  0.72060321  0.27539050  0.44585466    -1.08700
O1746       O  0.77255325  0.27642411  0.53268203    -1.08200
C1747       C  0.74636428  0.32075236  0.58934663     1.06400
C1748       C  0.74481428  0.31992035  0.38730979     1.09000
C1749       C  0.81593517  0.25246299  0.59433233     1.06600
C1750       C  0.67638728  0.25035137  0.58919018     1.06900
C1751       C  0.67763571  0.24648689  0.38794902     1.06500
C1752       C  0.81864514  0.25152559  0.39101288     1.06100
C1753       C  0.81288592  0.31788840  0.49337299     1.06500
C1754       C  0.67928621  0.31508102  0.49103545     1.06000
H1755       H  0.78503250  0.28779566  0.43171110     0.32700
O1756       O  0.77380562  0.27606680  0.44746317    -1.29800
H1757       H  0.70891846  0.28695858  0.54697353     0.32700
O1758       O  0.72044145  0.27558721  0.53131114    -1.26600
N1759       N  0.49555868  0.03942813  0.39992536    -0.36800
N1760       N  0.53701070  0.49556592  0.58190294    -0.57300
N1761       N  0.49383522  0.45779549  0.58110469    -0.36800
N1762       N  0.95753795  0.50356265  0.57959699    -0.57300
C1763       C  0.51758704  0.05435350  0.39605103     0.26800
C1764       C  0.97316310  0.05342979  0.40475350     0.26800
C1765       C  0.51402783  0.44181361  0.56958918     0.26800
C1766       C  0.97227020  0.44816937  0.56163088     0.26800
C1767       C  0.55131706  0.01966465  0.41091651     0.35400
C1768       C  0.55118501  0.47286168  0.58428041     0.35400
C1769       C  0.93994258  0.01869864  0.38757471     0.35400
C1770       C  0.94034518  0.48311016  0.58206473     0.35400
C1771       C  0.51076857  0.07966857  0.38330150    -0.22100
C1772       C  0.98009520  0.07691969  0.42424335    -0.22100
C1773       C  0.50400435  0.41868150  0.55243892    -0.22100
C1774       C  0.97806539  0.42513943  0.54015039    -0.22100
C1775       C  0.57608854  0.01136893  0.42390671    -0.23100
C1776       C  0.57768532  0.47863225  0.59083212    -0.23100
C1777       C  0.91439471  0.01003384  0.37953210    -0.23100
C1778       C  0.91506273  0.49241798  0.58996661    -0.23100
C1779       C  0.54320091  0.04646190  0.40805644    -0.18500
C1780       C  0.94685015  0.04511613  0.39718168    -0.18500
C1781       C  0.94644211  0.45677226  0.57101220    -0.18500
C1782       C  0.54127464  0.44750404  0.57395619    -0.18500
H1783       H  0.52393056  0.09633345  0.37848975     0.14400
H1784       H  0.96694585  0.09200979  0.43617527     0.14400
H1785       H  0.51501410  0.40190959  0.54062848     0.14400
H1786       H  0.96428208  0.41086621  0.52746692     0.14400
H1787       H  0.59247624  0.02363700  0.43387752     0.12700
H1788       H  0.59398855  0.46472436  0.59271491     0.12700
H1789       H  0.89682251  0.02209622  0.37574284     0.12700
H1790       H  0.89700838  0.48092356  0.59210134     0.12700
H1791       H  0.49464972  0.02144454  0.41504802     0.26000
H1792       H  0.49535765  0.47512790  0.59815559     0.26000
O1793       O  0.50061180  0.45395783  0.87291140    -0.86700
O1794       O  0.50697929  0.45340487  0.10695374    -0.86800
O1795       O  0.54427546  0.42342464  0.99266769    -0.88500
O1796       O  0.95870891  0.42582828  0.99467996    -0.87300
O1797       O  0.92771183  0.45833788  0.00286781    -0.86800
O1798       O  0.57675051  0.45500451  0.98883113    -0.88200
O1799       O  0.50372099  0.42442371  0.05349751    -0.86700
O1800       O  0.50298287  0.42378219  0.92501487    -0.86300
Zr1801     Zr  0.50246710  0.44708680  0.98955774     2.84300
O1802       O  0.97728179  0.47366500  0.03245578    -1.08300
O1803       O  0.52760325  0.47280700  0.94528365    -1.09000
C1804       C  0.50245488  0.42976881  0.88707109     1.06400
C1805       C  0.50581195  0.42938100  0.09161577     1.06400
C1806       C  0.56870963  0.43076697  0.99240640     1.09400
C1807       C  0.93507039  0.43379300  0.00260251     1.07100
H1808       H  0.54196871  0.46148632  0.04622627     0.32700
O1809       O  0.53048506  0.47269476  0.03077634    -1.29200
H1810       H  0.96105632  0.46327329  0.93183702     0.32400
O1811       O  0.97332482  0.47449375  0.94715755    -1.30900
O1812       O  0.50799994  0.04630888  0.11494352    -0.86700
O1813       O  0.49921211  0.04726733  0.88158257    -0.88200
O1814       O  0.58151813  0.49959913  0.04732918    -0.86700
O1815       O  0.92990057  0.50267094  0.06018980    -0.86800
O1816       O  0.92606656  0.99970008  0.93012838    -0.86500
O1817       O  0.57758530  0.99774127  0.92806971    -0.86300
O1818       O  0.54694661  0.07327173  0.00006560    -0.86700
O1819       O  0.96199992  0.07297202  0.00029728    -0.86100
O1820       O  0.57885858  0.04119058  0.99766349    -0.87200
O1821       O  0.92911061  0.04177389  0.00021445    -0.86400
O1822       O  0.55379101  0.50080922  0.10246748    -0.86800
O1823       O  0.54590850  0.99987334  0.87786459    -0.86500
O1824       O  0.95496099  0.00089251  0.87625787    -0.86100
O1825       O  0.96189963  0.50040403  0.10990164    -0.86500
O1826       O  0.50714991  0.07479449  0.06110582    -0.86800
O1827       O  0.50034539  0.07669561  0.93495674    -0.88200
Zr1828     Zr  0.50647577  0.49950592  0.07674753     2.83100
Zr1829     Zr  0.50089781  0.00064381  0.91086283     2.83500
Zr1830     Zr  0.55586604  0.99899726  0.99321489     2.84100
Zr1831     Zr  0.95013918  0.99826218  0.99351985     2.83400
Zr1832     Zr  0.50437639  0.05190067  0.99745236     2.84200
O1833       O  0.97569723  0.02473131  0.95027261    -1.08700
O1834       O  0.53123013  0.02522740  0.03791716    -1.08200
C1835       C  0.50821062  0.07028378  0.09932591     1.06400
C1836       C  0.49862894  0.07139579  0.89682664     1.09000
C1837       C  0.57726634  0.50031831  0.08566830     1.06600
C1838       C  0.93741491  0.50255617  0.09754799     1.06900
C1839       C  0.93117447  0.00063578  0.89193705     1.06500
C1840       C  0.57041934  0.99844403  0.89065056     1.06100
C1841       C  0.57116525  0.06552462  0.00097503     1.06500
C1842       C  0.93767437  0.06587803  0.00367975     1.06000
H1843       H  0.54041185  0.03791357  0.93598345     0.32700
O1844       O  0.52938426  0.02636681  0.95247646    -1.29800
H1845       H  0.96745297  0.03500842  0.05290722     0.32700
O1846       O  0.97796797  0.02346227  0.03544389    -1.31200
N1847       N  0.75556779  0.29076919  0.08537747    -0.36800
N1848       N  0.79433956  0.24860180  0.09420371    -0.57300
N1849       N  0.75352948  0.20866219  0.08827104    -0.36800
N1850       N  0.71478281  0.25084882  0.07957354    -0.57300
C1851       C  0.77831656  0.30372591  0.07708777     0.26800
C1852       C  0.73572201  0.30471633  0.06786183     0.26800
C1853       C  0.77514251  0.19387672  0.07940535     0.26800
C1854       C  0.73219657  0.19494405  0.07497393     0.26800
C1855       C  0.81008959  0.26970892  0.10163660     0.35400
C1856       C  0.80923902  0.22670862  0.10028855     0.35400
C1857       C  0.69957955  0.27287286  0.08079791     0.35400
C1858       C  0.69832624  0.23007034  0.08483196     0.35400
C1859       C  0.77279908  0.32635888  0.05464383    -0.22100
C1860       C  0.74587527  0.32696775  0.04883772    -0.22100
C1861       C  0.76735323  0.17015944  0.06138179    -0.22100
C1862       C  0.74022190  0.17075477  0.05883983    -0.22100
C1863       C  0.83496844  0.26119821  0.11385869    -0.23100
C1864       C  0.83447940  0.23387000  0.11267679    -0.23100
C1865       C  0.67339015  0.26617129  0.08772828    -0.23100
C1866       C  0.67258145  0.23893818  0.09025666    -0.23100
C1867       C  0.80389595  0.29585261  0.08960286    -0.18500
C1868       C  0.70860539  0.29829195  0.06987714    -0.18500
C1869       C  0.70564511  0.20346086  0.07791590    -0.18500
C1870       C  0.80167163  0.20100068  0.08769274    -0.18500
H1871       H  0.78673634  0.34082856  0.04321643     0.14400
H1872       H  0.73503468  0.34198730  0.03227923     0.14400
H1873       H  0.77988313  0.15405724  0.05106713     0.14400
H1874       H  0.72787358  0.15521197  0.04617097     0.14400
H1875       H  0.85215666  0.27339789  0.12016514     0.12700
H1876       H  0.85113262  0.22081114  0.11812744     0.12700
H1877       H  0.65652986  0.27942825  0.08901825     0.12700
H1878       H  0.65492218  0.22698097  0.09369534     0.12700
H1879       H  0.75354355  0.27465233  0.10481120     0.26000
H1880       H  0.75306433  0.22615293  0.10516528     0.26000
C1881       C  0.99833638  0.24943740  0.24175936    -0.02700
C1882       C  0.75638290  0.49992738  0.23523555    -0.02700
C1883       C  0.99640258  0.24898110  0.73993763    -0.02700
C1884       C  0.75009403  0.00112204  0.74467811    -0.02700
C1885       C  0.73355141  0.49784378  0.20159817    -0.20100
C1886       C  0.72343108  0.01763498  0.18387326     0.36200
C1887       C  0.69757677  0.01857212  0.16744567    -0.26000
C1888       C  0.68289769  0.49878596  0.16064304     0.02600
C1889       C  0.69169385  0.47573148  0.18097833     0.27400
C1890       C  0.71717085  0.47501318  0.19850394    -0.25200
N1891       N  0.74146818  0.03816522  0.17205014    -0.82500
H1892       H  0.69204038  0.03504474  0.14815134     0.13200
C1893       C  0.65526430  0.50011451  0.14237880     0.02600
N1894       N  0.67443243  0.45314142  0.18492542    -0.81100
H1895       H  0.72356816  0.45629217  0.21091836     0.18000
C1896       C  0.64630125  0.47894998  0.11799448    -0.26000
C1897       C  0.62031401  0.47802905  0.10235304     0.36100
C1898       C  0.60230805  0.49897222  0.11025228    -0.20000
C1899       C  0.60506026  0.01138297  0.15414385    -0.25200
C1900       C  0.63025843  0.01257890  0.17333491     0.27400
H1901       H  0.65984618  0.46295096  0.11070126     0.13200
N1902       N  0.61224968  0.45605457  0.07714658    -0.82500
H1903       H  0.58861255  0.02257507  0.16648030     0.18100
N1904       N  0.63381548  0.02761883  0.21000134    -0.81100
H1905       H  0.62767164  0.44238087  0.07365451     0.33700
H1906       H  0.59696975  0.44609341  0.09204165     0.38200
H1907       H  0.61596386  0.03644227  0.21872388     0.33600
H1908       H  0.63891496  0.01425439  0.23289376     0.30300
H1909       H  0.68379691  0.43771334  0.20051483     0.33700
H1910       H  0.65834310  0.45901642  0.20267887     0.30300
H1911       H  0.74829727  0.04861890  0.19727166     0.38200
H1912       H  0.75750442  0.02939019  0.15726297     0.33700
C1913       C  0.78367499  0.50377233  0.21246913    -0.20100
C1914       C  0.79330214  0.48462850  0.18420893     0.36200
C1915       C  0.81978373  0.48570289  0.17023070    -0.26000
C1916       C  0.83710111  0.50618229  0.18212481     0.02600
C1917       C  0.82341252  0.02551665  0.20306964     0.27400
C1918       C  0.79780919  0.02482457  0.21999103    -0.25200
N1919       N  0.77661678  0.46332428  0.17082021    -0.82500
H1920       H  0.82687623  0.47030101  0.14995525     0.13200
C1921       C  0.86504421  0.50685935  0.16642412     0.02600
N1922       N  0.83996163  0.04814723  0.21055241    -0.81100
H1923       H  0.79155484  0.04251476  0.23576154     0.18000
C1924       C  0.86997452  0.02529745  0.13993691    -0.26000
C1925       C  0.89515750  0.02509063  0.12151263     0.36100
C1926       C  0.91525297  0.50620883  0.12701268    -0.20000
C1927       C  0.90858585  0.48632299  0.15500397    -0.25200
C1928       C  0.88371609  0.48659138  0.17505454     0.27400
H1929       H  0.85718289  0.04228721  0.13513336     0.13200
N1930       N  0.90340833  0.04751852  0.09810995    -0.82500
H1931       H  0.92211835  0.46989907  0.15963163     0.18100
N1932       N  0.87715097  0.46617136  0.20359598    -0.81100
H1933       H  0.88945204  0.05053793  0.07516877     0.33700
H1934       H  0.90330266  0.06428235  0.11694271     0.38200
H1935       H  0.89290823  0.45284739  0.20672067     0.33600
H1936       H  0.87468140  0.47532831  0.23182184     0.30300
H1937       H  0.83022842  0.06499831  0.19954450     0.33700
H1938       H  0.84402101  0.55015403  0.24852722     0.30300
H1939       H  0.78578878  0.44533115  0.17808063     0.38200
H1940       H  0.77511463  0.46438657  0.13929659     0.33700
C1941       C  0.50715890  0.40443852  0.11734808    -0.20100
C1942       C  0.50360883  0.40359318  0.15987423     0.36200
C1943       C  0.50289930  0.37857662  0.18001351    -0.26000
C1944       C  0.00291349  0.35166641  0.15177774     0.02600
C1945       C  0.00741739  0.35306262  0.10990665     0.27400
C1946       C  0.00800986  0.37794256  0.09063085    -0.25200
N1947       N  0.50027561  0.42782577  0.18242956    -0.82500
H1948       H  0.49974876  0.37794062  0.21241375     0.13200
C1949       C  0.50458466  0.32793422  0.18004543     0.02600
N1950       N  0.01160342  0.32905594  0.08697722    -0.81100
H1951       H  0.01162925  0.37805492  0.05835269     0.18000
C1952       C  0.98240842  0.30668123  0.16520048    -0.26000
C1953       C  0.98170451  0.28169848  0.18482522     0.36100
C1954       C  0.00172105  0.27448121  0.21324750    -0.20000
C1955       C  0.52364794  0.29426795  0.22453749    -0.25200
C1956       C  0.52520683  0.31936237  0.20552807     0.27400
H1957       H  0.96646323  0.31201571  0.14478472     0.13200
N1958       N  0.95969855  0.26437705  0.17751277    -0.82500
H1959       H  0.54064049  0.28808125  0.24179639     0.18100
N1960       N  0.54796685  0.33608788  0.21162136    -0.81100
H1961       H  0.95919191  0.25990757  0.14659438     0.33700
H1962       H  0.94231141  0.27460717  0.18473766     0.38200
H1963       H  0.56138106  0.32721157  0.23157835     0.33600
H1964       H  0.55765618  0.33778183  0.18381926     0.30300
H1965       H  0.01437907  0.33331749  0.05633115     0.33700
H1966       H  0.02922316  0.32046422  0.09723144     0.30300
H1967       H  0.51815536  0.43825106  0.18102381     0.38200
H1968       H  0.49708367  0.42368780  0.21302018     0.33700
C1969       C  0.99804428  0.22424089  0.21210761    -0.20100
C1970       C  0.51775025  0.22075543  0.19283516     0.36200
C1971       C  0.52033528  0.19512450  0.17548848    -0.26000
C1972       C  0.00185924  0.17294750  0.17181431     0.02600
C1973       C  0.97727264  0.18243836  0.18646671     0.27400
C1974       C  0.97568217  0.20746838  0.20658446    -0.25200
N1975       N  0.53865618  0.23959867  0.18710681    -0.82500
H1976       H  0.53840807  0.19036871  0.15945240     0.13200
C1977       C  0.00508336  0.14508241  0.15373036     0.02600
N1978       N  0.95376012  0.16685352  0.18016713    -0.81100
H1979       H  0.95653323  0.21382132  0.21731609     0.18000
C1980       C  0.99426685  0.12239162  0.17302223    -0.26000
C1981       C  0.99585177  0.09637875  0.15567297     0.36100
C1982       C  0.50926777  0.09593096  0.12424135    -0.20000
C1983       C  0.51532476  0.11968262  0.10316149    -0.25200
C1984       C  0.51234131  0.14519038  0.12027493     0.27400
H1985       H  0.98393241  0.12504343  0.20142037     0.13200
N1986       N  0.98268442  0.07435525  0.17445400    -0.82500
H1987       H  0.52159705  0.11863155  0.07188182     0.18100
N1988       N  0.51652908  0.16834710  0.09567569    -0.81100
H1989       H  0.97342557  0.08049112  0.20116133     0.33700
H1990       H  0.96761945  0.06804311  0.15487621     0.38200
H1991       H  0.52246359  0.16301677  0.06645282     0.33600
H1992       H  0.49833397  0.17806128  0.09269329     0.30300
H1993       H  0.93722038  0.17652185  0.19219795     0.33700
H1994       H  0.95060738  0.16546269  0.14891881     0.30300
H1995       H  0.54041941  0.24311900  0.15606425     0.38200
H1996       H  0.55637354  0.23114381  0.19720287     0.33700
C1997       C  0.58897719  0.41004578  0.99908471    -0.20100
C1998       C  0.61387543  0.41113769  0.97989734     0.36200
C1999       C  0.63354735  0.39266107  0.99046802    -0.26000
C2000       C  0.62861892  0.37306581  0.01948395     0.02600
C2001       C  0.60347935  0.37124281  0.03754872     0.27400
C2002       C  0.58387985  0.38983642  0.02727629    -0.25200
N2003       N  0.61892118  0.43080475  0.94947711    -0.82500
H2004       H  0.65284608  0.39360269  0.97630186     0.13200
C2005       C  0.64999206  0.35456839  0.03106531     0.02600
N2006       N  0.59814003  0.35067597  0.06651690    -0.81100
H2007       H  0.56480154  0.38898729  0.04213604     0.18000
C2008       C  0.66288549  0.35816693  0.06833033    -0.26000
C2009       C  0.68238807  0.34019689  0.08133752     0.36100
C2010       C  0.68884729  0.31829134  0.05660214    -0.20000
C2011       C  0.67633371  0.31501425  0.01893611    -0.25200
C2012       C  0.65691539  0.33304238  0.00585467     0.27400
H2013       H  0.65749348  0.37489522  0.08738034     0.13200
N2014       N  0.69559122  0.34394311  0.11952479    -0.82500
H2015       H  0.68162444  0.29821147  0.99997657     0.18100
N2016       N  0.64403649  0.32953995  0.96734446    -0.81100
H2017       H  0.68871581  0.36115531  0.13390155     0.33700
H2018       H  0.69049867  0.32797843  0.13811533     0.38200
H2019       H  0.65156116  0.31283222  0.95236023     0.33600
H2020       H  0.62403157  0.32568866  0.97284841     0.30300
H2021       H  0.57873934  0.35219997  0.07724316     0.33700
H2022       H  0.59943236  0.33242251  0.05137259     0.30300
H2023       H  0.60604647  0.42685085  0.92540115     0.38200
H2024       H  0.63811336  0.42882362  0.93810655     0.33700
C2025       C  0.91569671  0.41314587  0.01489266    -0.20100
C2026       C  0.88826585  0.41846106  0.01848223     0.36200
C2027       C  0.87156256  0.39903309  0.03506528    -0.26000
C2028       C  0.88153275  0.37431220  0.04717570     0.02600
C2029       C  0.90863785  0.36867909  0.04283672     0.27400
C2030       C  0.92541458  0.38808645  0.02678298    -0.25200
N2031       N  0.87736358  0.44331086  0.00498092    -0.82500
H2032       H  0.85052320  0.40288117  0.03763805     0.13200
C2033       C  0.86299799  0.35358974  0.06092848     0.02600
N2034       N  0.91898474  0.34327066  0.05496892    -0.81100
H2035       H  0.94635669  0.38370383  0.02456802     0.18000
C2036       C  0.86033512  0.33057184  0.03727402    -0.26000
C2037       C  0.84178550  0.31104179  0.04717707     0.36100
C2038       C  0.82590364  0.31451203  0.08177232    -0.20000
C2039       C  0.82886963  0.33725753  0.10606281    -0.25200
C2040       C  0.84742281  0.35694221  0.09595256     0.27400
H2041       H  0.87221641  0.32829488  0.01020939     0.13200
N2042       N  0.83840144  0.28803974  0.02166802    -0.82500
H2043       H  0.81626386  0.33985812  0.13227028     0.18100
N2044       N  0.85032771  0.38037775  0.12062497    -0.81100
H2045       H  0.85178348  0.28842175  0.99759230     0.33700
H2046       H  0.81946836  0.28901723  0.00889686     0.38200
H2047       H  0.83724344  0.37982610  0.14508630     0.33600
H2048       H  0.86944351  0.38016821  0.13283413     0.30300
H2049       H  0.93933121  0.34217615  0.04947445     0.33700
H2050       H  0.91653034  0.34168539  0.08627918     0.30300
H2051       H  0.87973762  0.44410811  0.97357375     0.38200
H2052       H  0.85699671  0.44408512  0.01040270     0.33700
C2053       C  0.91830802  0.08671096  0.01437428    -0.20100
C2054       C  0.92419870  0.10666291  0.04359157     0.36200
C2055       C  0.90440536  0.12418577  0.05603531    -0.26000
C2056       C  0.87892762  0.12268444  0.03963573     0.02600
C2057       C  0.87296671  0.10334869  0.01002324     0.27400
C2058       C  0.89270954  0.08536240  0.99787988    -0.25200
N2059       N  0.94969460  0.10910967  0.06236591    -0.82500
H2060       H  0.90896828  0.13924273  0.07858178     0.13200
C2061       C  0.85909368  0.14242309  0.05256422     0.02600
N2062       N  0.84690762  0.10207721  0.99257352    -0.81100
H2063       H  0.88809193  0.07015610  0.97561844     0.18000
C2064       C  0.85329680  0.16355350  0.02667716    -0.26000
C2065       C  0.83519199  0.18325932  0.03777522     0.36100
C2066       C  0.82272139  0.18185029  0.07612629    -0.20000
C2067       C  0.82862160  0.16065700  0.10216872    -0.25200
C2068       C  0.84675302  0.14080948  0.09066054     0.27400
H2069       H  0.86297086  0.16472676  0.99748191     0.13200
N2070       N  0.82990097  0.20411975  0.00917897    -0.82500
H2071       H  0.81871990  0.15943827  0.13115753     0.18100
N2072       N  0.85262938  0.11900038  0.11721741    -0.81100
H2073       H  0.82128363  0.19537637  0.98357959     0.33700
H2074       H  0.81626300  0.21793083  0.02007210     0.38200
H2075       H  0.84188860  0.12075617  0.14410791     0.33600
H2076       H  0.84614557  0.10154129  0.10302798     0.30300
H2077       H  0.84585729  0.08689092  0.97091017     0.33700
H2078       H  0.83374415  0.09697165  0.01563442     0.30300
H2079       H  0.96369858  0.11388657  0.04034269     0.38200
H2080       H  0.95460578  0.09096990  0.07574329     0.33700
C2081       C  0.68461405  0.18428571  0.06729169    -0.20100
C2082       C  0.67214073  0.16875507  0.09702223     0.36200
C2083       C  0.65345902  0.14976998  0.08528989    -0.26000
C2084       C  0.64733457  0.14582342  0.04425141     0.02600
C2085       C  0.65959495  0.16155590  0.01445625     0.27400
C2086       C  0.67798869  0.18091036  0.02639004    -0.25200
N2087       N  0.67833401  0.17177613  0.13911172    -0.82500
H2088       H  0.64383479  0.13784923  0.10820789     0.13200
C2089       C  0.62824933  0.12497319  0.03269085     0.02600
N2090       N  0.65367545  0.15740929  0.97229327    -0.81100
H2091       H  0.68778432  0.19293496  0.00376812     0.18000
C2092       C  0.60515401  0.13224899  0.01203802    -0.26000
C2093       C  0.58663445  0.11309665  0.00021960     0.36100
C2094       C  0.59138182  0.08603004  0.00886463    -0.20000
C2095       C  0.61467838  0.07877637  0.02936738    -0.25200
C2096       C  0.63309992  0.09804112  0.04166060     0.27400
H2097       H  0.60136042  0.15299877  0.00542044     0.13200
N2098       N  0.56301876  0.12129952  0.97961991    -0.82500
H2099       H  0.61816633  0.05812929  0.03698193     0.18100
N2100       N  0.65656285  0.09045289  0.06348340    -0.81100
H2101       H  0.56848930  0.13141896  0.95336870     0.33700
H2102       H  0.55286269  0.13459477  0.99841092     0.38200
H2103       H  0.65690707  0.06991434  0.06826138     0.33600
H2104       H  0.67286209  0.09490697  0.04530662     0.30300
H2105       H  0.66437584  0.17067610  0.95436332     0.33700
H2106       H  0.66014300  0.13831363  0.96452178     0.30300
H2107       H  0.67436974  0.19142084  0.14758631     0.38200
H2108       H  0.69857877  0.16829698  0.14303468     0.33700
C2109       C  0.77690402  0.99990388  0.77054230    -0.20100
C2110       C  0.79640690  0.48086281  0.75648016     0.36200
C2111       C  0.82036883  0.48269899  0.77843095    -0.26000
C2112       C  0.82762271  0.00404498  0.81197505     0.02600
C2113       C  0.80617590  0.02056552  0.82316597     0.27400
C2114       C  0.78146210  0.01862698  0.80217095    -0.25200
N2115       N  0.79595684  0.46191956  0.72400694    -0.82500
H2116       H  0.83621347  0.46889079  0.77145566     0.13200
C2117       C  0.85431007  0.00407310  0.83275467     0.02600
N2118       N  0.80955184  0.03934140  0.85564687    -0.81100
H2119       H  0.76567803  0.03220935  0.81018866     0.18000
C2120       C  0.87370690  0.02336483  0.82365456    -0.26000
C2121       C  0.89978038  0.02193691  0.84013126     0.36100
C2122       C  0.90674040  0.00063792  0.86590963    -0.20000
C2123       C  0.88217024  0.48449547  0.87937562    -0.25200
C2124       C  0.85693203  0.48475029  0.86058852     0.27400
H2125       H  0.86851001  0.03951101  0.80354690     0.13200
N2126       N  0.91893744  0.04222377  0.83137443    -0.82500
H2127       H  0.88572500  0.47071053  0.90391703     0.18100
N2128       N  0.83678413  0.46639151  0.87317190    -0.81100
H2129       H  0.91082089  0.05642444  0.81193355     0.33700
H2130       H  0.92338567  0.05209253  0.85846909     0.38200
H2131       H  0.84386130  0.45411098  0.89625274     0.33600
H2132       H  0.82124996  0.47747411  0.88552544     0.30300
H2133       H  0.79205298  0.04999880  0.86037203     0.33700
H2134       H  0.81308477  0.02854521  0.88210339     0.30300
H2135       H  0.79950352  0.44303628  0.73604713     0.38200
H2136       H  0.81130394  0.46632978  0.70396615     0.33700
C2137       C  0.59312964  0.99745192  0.86162872    -0.20100
C2138       C  0.60513338  0.47554350  0.84684314     0.36200
C2139       C  0.63096291  0.47617294  0.83073793    -0.26000
C2140       C  0.64513692  0.99685148  0.82750910     0.02600
C2141       C  0.63144168  0.02111156  0.83308130     0.27400
C2142       C  0.60585396  0.02120646  0.85061292    -0.25200
N2143       N  0.59280276  0.45061934  0.85623374    -0.82500
H2144       H  0.64120776  0.45771820  0.82426032     0.13200
C2145       C  0.67218708  0.99624563  0.80847686     0.02600
N2146       N  0.64373393  0.04562398  0.82118229    -0.81100
H2147       H  0.59622994  0.03997682  0.85721686     0.18000
C2148       C  0.67189523  0.50169982  0.76209229    -0.26000
C2149       C  0.69613079  0.50103095  0.74165663     0.36100
C2150       C  0.72294590  0.99924579  0.76885251    -0.20000
C2151       C  0.72098654  0.99601087  0.81131435    -0.25200
C2152       C  0.69596301  0.99472591  0.83117188     0.27400
H2153       H  0.65372362  0.50352623  0.74477336     0.13200
N2154       N  0.69556642  0.50312782  0.69846444    -0.82500
H2155       H  0.73875778  0.99416786  0.82929346     0.18100
N2156       N  0.69460181  0.99174434  0.87433433    -0.81100
H2157       H  0.68438942  0.48729311  0.68695028     0.33700
H2158       H  0.68598101  0.52083098  0.69073474     0.38200
H2159       H  0.71362240  0.99072368  0.88677214     0.33600
H2160       H  0.68580074  0.00890133  0.88615411     0.30300
H2161       H  0.63114486  0.06169192  0.82691763     0.33700
H2162       H  0.66050119  0.04836880  0.83933395     0.30300
H2163       H  0.57610967  0.44878438  0.83768108     0.38200
H2164       H  0.60534339  0.43478632  0.84891185     0.33700
C2165       C  0.49558243  0.09579832  0.87031630    -0.20100
C2166       C  0.97712801  0.11388871  0.87779423     0.36200
C2167       C  0.97677819  0.13891616  0.85865594    -0.26000
C2168       C  0.99506991  0.14548097  0.82832583     0.02600
C2169       C  0.51273456  0.12569249  0.81703422     0.27400
C2170       C  0.51241201  0.10061620  0.83718897    -0.25200
N2171       N  0.95863651  0.10865012  0.90962971    -0.82500
H2172       H  0.96243047  0.15361627  0.86836847     0.13200
C2173       C  0.99429256  0.17285197  0.80925944     0.02600
N2174       N  0.53029599  0.12997291  0.78356462    -0.81100
H2175       H  0.52605283  0.08514673  0.82792667     0.18000
C2176       C  0.51850122  0.18983859  0.80884816    -0.26000
C2177       C  0.51894312  0.21489005  0.78904132     0.36100
C2178       C  0.99461061  0.22364297  0.76842524    -0.20000
C2179       C  0.97133546  0.20795334  0.77169443    -0.25200
C2180       C  0.97122464  0.18259262  0.79016338     0.27400
H2181       H  0.53633232  0.18279960  0.82360475     0.13200
N2182       N  0.54279702  0.23026425  0.79001286    -0.82500
H2183       H  0.95280331  0.21510432  0.75971024     0.18100
N2184       N  0.94773720  0.16644865  0.78883586    -0.81100
H2185       H  0.54726653  0.23452241  0.82025755     0.33700
H2186       H  0.55816439  0.21863900  0.77832903     0.38200
H2187       H  0.93244186  0.17629724  0.77367035     0.33600
H2188       H  0.95207262  0.14948376  0.77168876     0.30300
H2189       H  0.54138774  0.11284489  0.77769044     0.33700
H2190       H  0.51864567  0.13334186  0.75788474     0.30300
H2191       H  0.96149870  0.12284824  0.93244784     0.38200
H2192       H  0.93950777  0.11103868  0.89806665     0.33700
C2193       C  0.99945012  0.27395797  0.76940627    -0.20100
C2194       C  0.97843351  0.28266572  0.79489669     0.36200
C2195       C  0.97863473  0.30865931  0.81203139    -0.26000
C2196       C  0.50512210  0.32654967  0.80428651     0.02600
C2197       C  0.52731619  0.31536798  0.78456810     0.27400
C2198       C  0.52596922  0.28922084  0.76873886    -0.25200
N2199       N  0.95611184  0.26575956  0.80170472    -0.82500
H2200       H  0.96196574  0.31506804  0.83016909     0.13200
C2201       C  0.50544830  0.35468730  0.82119797     0.02600
N2202       N  0.55105890  0.33079283  0.77962219    -0.81100
H2203       H  0.54394932  0.28087731  0.75656963     0.18000
C2204       C  0.52629871  0.36290984  0.84662046    -0.26000
C2205       C  0.52657963  0.38830649  0.86508143     0.36100
C2206       C  0.50524250  0.40616013  0.85921803    -0.20000
C2207       C  0.97950673  0.39887578  0.83257276    -0.25200
C2208       C  0.97856385  0.37297733  0.81493196     0.27400
H2209       H  0.54216314  0.34910292  0.85323477     0.13200
N2210       N  0.54824543  0.39584770  0.89100924    -0.82500
H2211       H  0.96296922  0.41233786  0.82864137     0.18100
N2212       N  0.95642907  0.36524599  0.79015517    -0.81100
H2213       H  0.56251473  0.38080753  0.89205924     0.33700
H2214       H  0.55740674  0.41232842  0.87797679     0.38200
H2215       H  0.94278557  0.38081609  0.78801118     0.33600
H2216       H  0.96352806  0.36180652  0.76090291     0.30300
H2217       H  0.56558286  0.31978707  0.76451628     0.33700
H2218       H  0.54644588  0.34689226  0.76095682     0.30300
H2219       H  0.95444095  0.26276766  0.83288462     0.38200
H2220       H  0.93909331  0.27566515  0.79187442     0.33700
C2221       C  0.83939992  0.25505464  0.62206360    -0.20100
C2222       C  0.85797813  0.27559417  0.61511858     0.36200
C2223       C  0.88357742  0.27423969  0.63228272    -0.26000
C2224       C  0.89132759  0.25308436  0.65744105     0.02600
C2225       C  0.87192389  0.23374273  0.66715017     0.27400
C2226       C  0.84640989  0.23464480  0.64902681    -0.25200
N2227       N  0.85091833  0.29752036  0.58945629    -0.82500
H2228       H  0.89782131  0.28958492  0.62503930     0.13200
C2229       C  0.91934691  0.25242544  0.67416544     0.02600
N2230       N  0.87788731  0.21327416  0.69573952    -0.81100
H2231       H  0.83245862  0.21875934  0.65483872     0.18000
C2232       C  0.93066811  0.27579558  0.68990326    -0.26000
C2233       C  0.95643597  0.27627161  0.70651306     0.36100
C2234       C  0.97094141  0.25213998  0.71201767    -0.20000
C2235       C  0.96145688  0.23006615  0.68942531    -0.25200
C2236       C  0.93588941  0.22978634  0.67161046     0.27400
H2237       H  0.91953891  0.29419476  0.68895933     0.13200
N2238       N  0.96814859  0.30168802  0.71455546    -0.82500
H2239       H  0.97320524  0.21208451  0.68805175     0.18100
N2240       N  0.92709683  0.20652887  0.65038838    -0.81100
H2241       H  0.95549865  0.31233770  0.73366112     0.33700
H2242       H  0.96918517  0.31205995  0.68724519     0.38200
H2243       H  0.94048827  0.20268201  0.62701341     0.33600
H2244       H  0.92782145  0.19051311  0.67044968     0.30300
H2245       H  0.86438633  0.21479414  0.71956340     0.33700
H2246       H  0.87491115  0.19489681  0.68153306     0.30300
H2247       H  0.83534950  0.30772080  0.60339009     0.38200
H2248       H  0.86660233  0.31100367  0.58731596     0.33700
C2249       C  0.52162740  0.24681062  0.70685444    -0.20100
C2250       C  0.53594237  0.22299764  0.69811294     0.36200
C2251       C  0.56130399  0.22423768  0.67998152    -0.26000
C2252       C  0.57259870  0.24855844  0.66826012     0.02600
C2253       C  0.55638357  0.27145813  0.67056446     0.27400
C2254       C  0.53054292  0.26979307  0.68644830    -0.25200
N2255       N  0.52443862  0.19741046  0.70510800    -0.82500
H2256       H  0.57212030  0.20594951  0.67475826     0.13200
C2257       C  0.60023527  0.24965634  0.65065359     0.02600
N2258       N  0.56660343  0.29695378  0.65931604    -0.81100
H2259       H  0.51895650  0.28786143  0.68801763     0.18000
C2260       C  0.60410918  0.26347979  0.61443286    -0.26000
C2261       C  0.62919554  0.26591152  0.59667005     0.36100
C2262       C  0.65149539  0.25279810  0.61383320    -0.20000
C2263       C  0.64793863  0.23898579  0.65031602    -0.25200
C2264       C  0.62261268  0.23738786  0.66900180     0.27400
H2265       H  0.58724392  0.27232202  0.59932816     0.13200
N2266       N  0.63198772  0.28146999  0.56045873    -0.82500
H2267       H  0.66465784  0.22863832  0.66347792     0.18100
N2268       N  0.61954095  0.22304744  0.70620318    -0.81100
H2269       H  0.61379016  0.28933385  0.55124497     0.33700
H2270       H  0.64416212  0.29765292  0.56750639     0.38200
H2271       H  0.63764788  0.21501680  0.71549169     0.33600
H2272       H  0.61387947  0.23670115  0.72848974     0.30300
H2273       H  0.55425120  0.30488348  0.63698628     0.33700
H2274       H  0.56574900  0.30945372  0.68465113     0.30300
H2275       H  0.53755038  0.18633906  0.72285320     0.38200
H2276       H  0.52268717  0.18769589  0.67718926     0.33700
C2277       C  0.74576914  0.15624763  0.61950327    -0.20100
C2278       C  0.72967333  0.13408386  0.60934416     0.36200
C2279       C  0.73188618  0.11013083  0.63098732    -0.26000
C2280       C  0.75017731  0.10726430  0.66264612     0.02600
C2281       C  0.76600816  0.12939728  0.67359006     0.27400
C2282       C  0.76364978  0.15365919  0.65196465    -0.25200
N2283       N  0.71097634  0.13579261  0.57672526    -0.82500
H2284       H  0.71934123  0.09348238  0.62268732     0.13200
C2285       C  0.75128159  0.08129988  0.68499482     0.02600
N2286       N  0.78454793  0.12708001  0.70641060    -0.81100
H2287       H  0.77643982  0.17024677  0.65954566     0.18000
C2288       C  0.77209186  0.06324568  0.67893213    -0.26000
C2289       C  0.77226110  0.03777728  0.69732911     0.36100
C2290       C  0.75085583  0.02926397  0.72236398    -0.20000
C2291       C  0.73152449  0.04925338  0.73095067    -0.25200
C2292       C  0.73097214  0.07420059  0.71169020     0.27400
H2293       H  0.78831273  0.06882768  0.65932983     0.13200
N2294       N  0.79477623  0.02107379  0.69107541    -0.82500
H2295       H  0.71650966  0.04624971  0.75353672     0.18100
N2296       N  0.70970830  0.09255810  0.71938541    -0.81100
H2297       H  0.81138744  0.03095732  0.70263927     0.33700
H2298       H  0.79762586  0.01867989  0.65996643     0.38200
H2299       H  0.69583517  0.08435040  0.73916451     0.33600
H2300       H  0.71774095  0.10918503  0.73400789     0.30300
H2301       H  0.79486087  0.14492121  0.71047825     0.33700
H2302       H  0.77368549  0.12398243  0.73286956     0.30300
H2303       H  0.71558612  0.12104801  0.55546322     0.38200
H2304       H  0.69214523  0.13172187  0.58820109     0.33700
C2305       C  0.74652180  0.34471167  0.61610277    -0.20100
C2306       C  0.76876341  0.36186452  0.61686919     0.36200
C2307       C  0.76676901  0.38728333  0.63502631    -0.26000
C2308       C  0.74287411  0.39634296  0.65176054     0.02600
C2309       C  0.72046133  0.37950124  0.65015754     0.27400
C2310       C  0.72257402  0.35386260  0.63259569    -0.25200
N2311       N  0.79340412  0.35330832  0.59939995    -0.82500
H2312       H  0.78395442  0.40016655  0.63610213     0.13200
C2313       C  0.74207915  0.42298672  0.67234719     0.02600
N2314       N  0.69530069  0.38901592  0.66437067    -0.81100
H2315       H  0.70512776  0.34142378  0.63002936     0.18000
C2316       C  0.74253048  0.44667058  0.64990364    -0.26000
C2317       C  0.74322727  0.47200653  0.66898732     0.36100
C2318       C  0.74480953  0.47399139  0.71208154    -0.20000
C2319       C  0.74250960  0.44974227  0.73382810    -0.25200
C2320       C  0.74167781  0.42478295  0.71469169     0.27400
H2321       H  0.74203572  0.44551522  0.61715160     0.13200
N2322       N  0.74087415  0.49509822  0.64411994    -0.82500
H2323       H  0.74282921  0.45012660  0.76662161     0.18100
N2324       N  0.74141057  0.40111376  0.73864905    -0.81100
H2325       H  0.72282211  0.49397112  0.62865459     0.33700
H2326       H  0.75576298  0.49433617  0.62225492     0.38200
H2327       H  0.75826619  0.40122665  0.75707896     0.33600
H2328       H  0.72480605  0.40182441  0.75744913     0.30300
H2329       H  0.68054052  0.37484772  0.65903622     0.33700
H2330       H  0.69653132  0.39134724  0.69573131     0.30300
H2331       H  0.79041916  0.35045668  0.56842310     0.38200
H2332       H  0.80775169  0.36820017  0.60218807     0.33700
C2333       C  0.83294714  0.16166300  0.47198132    -0.20100
C2334       C  0.82475197  0.13506982  0.46427876     0.36200
C2335       C  0.84326003  0.11612211  0.45184884    -0.26000
C2336       C  0.86984033  0.12286969  0.44679318     0.02600
C2337       C  0.87836379  0.14904130  0.45475228     0.27400
C2338       C  0.85982368  0.16822660  0.46709841    -0.25200
N2339       N  0.79763673  0.12706711  0.46820871    -0.82500
H2340       H  0.83673672  0.09597759  0.44557846     0.13200
C2341       C  0.88849436  0.10217544  0.43309156     0.02600
N2342       N  0.90581014  0.15595468  0.45029984    -0.81100
H2343       H  0.86644905  0.18840576  0.47259364     0.18000
C2344       C  0.90111400  0.10501644  0.39560548    -0.26000
C2345       C  0.91925932  0.08601478  0.38186710     0.36100
C2346       C  0.92520611  0.06398351  0.40673784    -0.20000
C2347       C  0.91182884  0.06068264  0.44352652    -0.25200
C2348       C  0.89336775  0.07951576  0.45689517     0.27400
H2349       H  0.89671435  0.12209080  0.37683195     0.13200
N2350       N  0.93089014  0.08953310  0.34258344    -0.82500
H2351       H  0.91639018  0.04365701  0.46231450     0.18100
N2352       N  0.87987870  0.07600273  0.49477713    -0.81100
H2353       H  0.94283097  0.10648693  0.34387594     0.33700
H2354       H  0.94308100  0.07359680  0.33468183     0.38200
H2355       H  0.88553453  0.05812644  0.50834005     0.33600
H2356       H  0.88595270  0.09127739  0.51424410     0.30300
H2357       H  0.90881516  0.17606720  0.45700407     0.33700
H2358       H  0.91652566  0.14515793  0.47179625     0.30300
H2359       H  0.79114127  0.11972397  0.44022842     0.38200
H2360       H  0.79670207  0.11161913  0.48924188     0.33700
C2361       C  0.56225703  0.06728607  0.42066100    -0.20100
C2362       C  0.58280995  0.07600385  0.39506173     0.36200
C2363       C  0.60216091  0.09315544  0.41063432    -0.26000
C2364       C  0.60158616  0.10170304  0.45116347     0.02600
C2365       C  0.58083756  0.09325626  0.47656607     0.27400
C2366       C  0.56125126  0.07625331  0.46089374    -0.25200
N2367       N  0.58461511  0.06800218  0.35332597    -0.82500
H2368       H  0.61776052  0.10002875  0.39079097     0.13200
C2369       C  0.62234350  0.12037134  0.46564676     0.02600
N2370       N  0.58007664  0.10150560  0.51826478    -0.81100
H2371       H  0.54556579  0.06920905  0.48044414     0.18000
C2372       C  0.61487810  0.14525939  0.48097474    -0.26000
C2373       C  0.63385102  0.16471486  0.49018175     0.36100
C2374       C  0.66098917  0.15954934  0.48318509    -0.20000
C2375       C  0.66849569  0.13394027  0.47009410    -0.25200
C2376       C  0.64945298  0.11425253  0.46165312     0.27400
H2377       H  0.59408677  0.14997121  0.48465116     0.13200
N2378       N  0.62531866  0.18973524  0.50640623    -0.82500
H2379       H  0.68921407  0.12940126  0.46534098     0.18100
N2380       N  0.65743221  0.08816545  0.44854208    -0.81100
H2381       H  0.61519627  0.18611689  0.53338920     0.33700
H2382       H  0.61200342  0.19826442  0.48595187     0.38200
H2383       H  0.67804868  0.08680964  0.44735789     0.33600
H2384       H  0.65123803  0.07464267  0.47053546     0.30300
H2385       H  0.56345918  0.09360390  0.53269977     0.33700
H2386       H  0.59666620  0.09343688  0.53267800     0.30300
H2387       H  0.56856315  0.05626126  0.34447085     0.38200
H2388       H  0.60158993  0.05628464  0.35027807     0.33700
C2389       C  0.56048359  0.42721027  0.55995041    -0.20100
C2390       C  0.56756641  0.42604299  0.51881535     0.36200
C2391       C  0.58578014  0.40697584  0.50558871    -0.26000
C2392       C  0.59715196  0.38922422  0.53305620     0.02600
C2393       C  0.59006131  0.39016141  0.57429615     0.27400
C2394       C  0.57157321  0.40920140  0.58744656    -0.25200
N2395       N  0.55631274  0.44439773  0.49056153    -0.82500
H2396       H  0.59146286  0.40634555  0.47398419     0.13200
C2397       C  0.61786968  0.37092668  0.51887279     0.02600
N2398       N  0.60203518  0.37206490  0.60252030    -0.81100
H2399       H  0.56597746  0.41022201  0.61904980     0.18000
C2400       C  0.64423279  0.37739496  0.52701673    -0.26000
C2401       C  0.66465113  0.35995062  0.51669375     0.36100
C2402       C  0.65863413  0.33551693  0.49737903    -0.20000
C2403       C  0.63210127  0.32956858  0.48788695    -0.25200
C2404       C  0.61159085  0.34705451  0.49867984     0.27400
H2405       H  0.64893118  0.39585757  0.54250379     0.13200
N2406       N  0.69129064  0.36673140  0.52762363    -0.82500
H2407       H  0.62726900  0.31092565  0.47306638     0.18100
N2408       N  0.58446219  0.34053500  0.48993208    -0.81100
H2409       H  0.69609111  0.38470455  0.51365754     0.33700
H2410       H  0.69205811  0.36964642  0.55895375     0.38200
H2411       H  0.58324736  0.32227489  0.47478635     0.33600
H2412       H  0.57471251  0.33811258  0.51754970     0.30300
H2413       H  0.59484515  0.37547929  0.63172604     0.33700
H2414       H  0.59621082  0.35281227  0.59439970     0.30300
H2415       H  0.54666671  0.43345590  0.46794848     0.38200
H2416       H  0.57177595  0.45495151  0.47711600     0.33700
C2417       C  0.83269380  0.33952500  0.49852799    -0.20100
C2418       C  0.82503292  0.36657759  0.50163386     0.36200
C2419       C  0.84349912  0.38563524  0.51392324    -0.26000
C2420       C  0.86985876  0.37872624  0.52130286     0.02600
C2421       C  0.87826400  0.35232457  0.51501950     0.27400
C2422       C  0.85956423  0.33292997  0.50396684    -0.25200
N2423       N  0.79857484  0.37501139  0.49256654    -0.82500
H2424       H  0.83710451  0.40604254  0.51803529     0.13200
C2425       C  0.88840055  0.39956906  0.53512154     0.02600
N2426       N  0.90566689  0.34534267  0.52017905    -0.81100
H2427       H  0.86599469  0.31250080  0.50055834     0.18000
C2428       C  0.90176127  0.39645697  0.57211900    -0.26000
C2429       C  0.91976350  0.41562641  0.58562452     0.36100
C2430       C  0.92449523  0.43828308  0.56172202    -0.20000
C2431       C  0.91045647  0.44189130  0.52556078    -0.25200
C2432       C  0.89239560  0.42271576  0.51194678     0.27400
H2433       H  0.89825659  0.37897396  0.59041815     0.13200
N2434       N  0.93304792  0.41168668  0.62349769    -0.82500
H2435       H  0.91439049  0.45927371  0.50724214     0.18100
N2436       N  0.87853585  0.42632528  0.47429572    -0.81100
H2437       H  0.95342749  0.41088803  0.61833446     0.33700
H2438       H  0.92912197  0.42809275  0.64207924     0.38200
H2439       H  0.88357880  0.44451539  0.46119369     0.33600
H2440       H  0.88487203  0.41146027  0.45435083     0.30300
H2441       H  0.90856421  0.32508921  0.51444413     0.33700
H2442       H  0.91650542  0.35563345  0.49833462     0.30300
H2443       H  0.79090561  0.38472735  0.51799891     0.38200
H2444       H  0.79948355  0.38881818  0.46903324     0.33700
C2445       C  0.65370989  0.24384807  0.36160006    -0.20100
C2446       C  0.63629230  0.22229377  0.36819711     0.36200
C2447       C  0.60994918  0.22329351  0.35429636    -0.26000
C2448       C  0.60014521  0.24536402  0.33299068     0.02600
C2449       C  0.61771011  0.26677275  0.32535757     0.27400
C2450       C  0.64416847  0.26587216  0.33997889    -0.25200
N2451       N  0.64514501  0.19957287  0.39051121    -0.82500
H2452       H  0.59690425  0.20678728  0.36094948     0.13200
C2453       C  0.57196788  0.24512042  0.31741993     0.02600
N2454       N  0.60854370  0.28953338  0.30323848    -0.81100
H2455       H  0.65697195  0.28295936  0.33620353     0.18000
C2456       C  0.55442720  0.26622415  0.32571597    -0.26000
C2457       C  0.52897426  0.26750555  0.30756143     0.36100
C2458       C  0.52082686  0.24781931  0.27899812    -0.20000
C2459       C  0.53640027  0.22433701  0.27841551    -0.25200
C2460       C  0.56222086  0.22347844  0.29454454     0.27400
H2461       H  0.56074986  0.28221116  0.34557840     0.13200
N2462       N  0.51214410  0.28958843  0.31669999    -0.82500
H2463       H  0.52931013  0.20655712  0.26364502     0.18100
N2464       N  0.57894656  0.20097499  0.28621040    -0.81100
H2465       H  0.52234022  0.30711689  0.31003315     0.33700
H2466       H  0.50839507  0.28946129  0.34780339     0.38200
H2467       H  0.56895262  0.18677882  0.26873441     0.33600
H2468       H  0.59474568  0.20767441  0.26858501     0.30300
H2469       H  0.62367803  0.30357660  0.30041061     0.33700
H2470       H  0.60381878  0.28318283  0.27392707     0.30300
H2471       H  0.63288656  0.19742673  0.41571572     0.38200
H2472       H  0.64270259  0.18274388  0.37218468     0.33700
C2473       C  0.84309007  0.25320666  0.36512444    -0.20100
C2474       C  0.84836421  0.23564792  0.33264049     0.36200
C2475       C  0.87401334  0.23506538  0.31492947    -0.26000
C2476       C  0.89466035  0.25165756  0.32897233     0.02600
C2477       C  0.88924914  0.26932656  0.36123599     0.27400
C2478       C  0.86375219  0.27001835  0.37854070    -0.25200
N2479       N  0.82817906  0.21757031  0.31907986    -0.82500
H2480       H  0.87797068  0.22152068  0.29009795     0.13200
C2481       C  0.92159601  0.25119512  0.30916635     0.02600
N2482       N  0.90992070  0.28610384  0.37707142    -0.81100
H2483       H  0.86018430  0.28332491  0.40384371     0.18000
C2484       C  0.93158279  0.27452893  0.29207324    -0.26000
C2485       C  0.95659301  0.27549822  0.27325408     0.36100
C2486       C  0.97208055  0.25178708  0.26805300    -0.20000
C2487       C  0.96312556  0.22926517  0.28987168    -0.25200
C2488       C  0.93810040  0.22853943  0.30940591     0.27400
H2489       H  0.91993855  0.29259393  0.29394613     0.13200
N2490       N  0.96635413  0.30119437  0.26219605    -0.82500
H2491       H  0.97533153  0.21156599  0.29015150     0.18100
N2492       N  0.92948363  0.20487530  0.32971528    -0.81100
H2493       H  0.96715556  0.31301741  0.28828806     0.33700
H2494       H  0.95267439  0.30996024  0.24254419     0.38200
H2495       H  0.94375431  0.18990977  0.32718742     0.33600
H2496       H  0.92789295  0.20938917  0.36054268     0.30300
H2497       H  0.90284211  0.29792212  0.40080453     0.33700
H2498       H  0.92448578  0.27375942  0.38941521     0.30300
H2499       H  0.81296064  0.22888852  0.30634067     0.38200
H2500       H  0.83540593  0.20533500  0.29596721     0.33700
C2501       C  0.74270578  0.34474222  0.36117804    -0.20100
C2502       C  0.73189357  0.36861462  0.37788509     0.36200
C2503       C  0.73465881  0.39306355  0.35757592    -0.26000
C2504       C  0.74629904  0.39489724  0.31924207     0.02600
C2505       C  0.75514611  0.37090339  0.30073918     0.27400
C2506       C  0.75362201  0.34625912  0.32200842    -0.25200
N2507       N  0.71809448  0.36812750  0.41595309    -0.82500
H2508       H  0.72784043  0.41106333  0.37231580     0.13200
C2509       C  0.74943341  0.42217138  0.29994868     0.02600
N2510       N  0.76570952  0.37162322  0.26042902    -0.81100
H2511       H  0.76160084  0.32837738  0.30834333     0.18000
C2512       C  0.77429150  0.43053650  0.28599117    -0.26000
C2513       C  0.77833327  0.45599151  0.26879193     0.36100
C2514       C  0.75652761  0.47382030  0.26268071    -0.20000
C2515       C  0.73280414  0.46672700  0.28277588    -0.25200
C2516       C  0.72855486  0.44100171  0.29895480     0.27400
H2517       H  0.79114053  0.41741798  0.28960820     0.13200
N2518       N  0.80506189  0.46391737  0.26109075    -0.82500
H2519       H  0.71635098  0.48053259  0.28197492     0.18100
N2520       N  0.70265725  0.43368120  0.31296085    -0.81100
H2521       H  0.81547577  0.46349940  0.28847066     0.33700
H2522       H  0.81370237  0.44980096  0.24191127     0.38200
H2523       H  0.68944401  0.44956039  0.31001620     0.33600
H2524       H  0.69566388  0.41851684  0.29400948     0.30300
H2525       H  0.77115946  0.35253544  0.25096310     0.33700
H2526       H  0.75049984  0.37779172  0.24108891     0.30300
H2527       H  0.70105082  0.35660841  0.41192907     0.38200
H2528       H  0.71170028  0.38714516  0.42430128     0.33700
C2529       C  0.74659075  0.15402203  0.36521609    -0.20100
C2530       C  0.75631054  0.15108269  0.32537193     0.36200
C2531       C  0.75650831  0.12545970  0.30695764    -0.26000
C2532       C  0.74752343  0.10276266  0.32782311     0.02600
C2533       C  0.73717464  0.10582931  0.36689884     0.27400
C2534       C  0.73662216  0.13112460  0.38484497    -0.25200
N2535       N  0.76632791  0.17376787  0.30406940    -0.82500
H2536       H  0.76411243  0.12307047  0.27653346     0.13200
C2537       C  0.74818891  0.07576224  0.30874135     0.02600
N2538       N  0.72751032  0.08304981  0.38851056    -0.81100
H2539       H  0.72845902  0.13276911  0.41502961     0.18000
C2540       C  0.76822498  0.05764212  0.31896662    -0.26000
C2541       C  0.76932500  0.03206565  0.30112549     0.36100
C2542       C  0.75035524  0.02427744  0.27135378    -0.20000
C2543       C  0.72769746  0.04091180  0.26809747    -0.25200
C2544       C  0.72719144  0.06689685  0.28424338     0.27400
H2545       H  0.78345680  0.06357024  0.34032757     0.13200
N2546       N  0.79051297  0.01459987  0.31201063    -0.82500
H2547       H  0.71032311  0.03440205  0.25192428     0.18100
N2548       N  0.70554694  0.08451298  0.27526463    -0.81100
H2549       H  0.78935369  0.01109276  0.34312294     0.33700
H2550       H  0.80844094  0.02426864  0.30635961     0.38200
H2551       H  0.69197295  0.07535387  0.25575200     0.33600
H2552       H  0.69550976  0.08840377  0.30226053     0.30300
H2553       H  0.72157398  0.08841651  0.41769796     0.33700
H2554       H  0.71061346  0.07614834  0.37344529     0.30300
H2555       H  0.78324247  0.18034252  0.31941046     0.38200
H2556       H  0.77241664  0.16828446  0.27499192     0.33700
O2557       O  0.74676495  0.70097780  0.37762463    -0.86700
O2558       O  0.74756459  0.70615504  0.60991288    -0.86800
O2559       O  0.79014666  0.67651634  0.49638288    -0.88500
O2560       O  0.70531611  0.67469012  0.49899698    -0.87300
O2561       O  0.67280756  0.70609825  0.49788631    -0.86800
O2562       O  0.82176084  0.70900023  0.49758529    -0.88200
O2563       O  0.74759809  0.67524063  0.55823969    -0.86700
O2564       O  0.74727392  0.67286140  0.43210405    -0.86300
Zr2565     Zr  0.74748566  0.69786410  0.49435238     2.84300
O2566       O  0.72092106  0.72401104  0.53612863    -1.08300
O2567       O  0.77343026  0.72333373  0.45068338    -1.09000
C2568       C  0.74671798  0.67717759  0.39373896     1.06400
C2569       C  0.74759495  0.68176639  0.59588412     1.06400
C2570       C  0.81425341  0.68450937  0.49911825     1.09400
C2571       C  0.68084434  0.68192983  0.50070725     1.07100
H2572       H  0.78467887  0.71474576  0.55290541     0.32700
O2573       O  0.77323464  0.72526896  0.53628979    -1.29200
H2574       H  0.70969225  0.70976203  0.43524754     0.32400
O2575       O  0.72074357  0.72190687  0.45029409    -1.30900
O2576       O  0.74468779  0.79833636  0.60710516    -0.86700
O2577       O  0.74418083  0.79427740  0.37445249    -0.88200
O2578       O  0.82210169  0.75707982  0.55575626    -0.86700
O2579       O  0.67113485  0.75138840  0.55499411    -0.86800
O2580       O  0.67108579  0.74390803  0.42913087    -0.86500
O2581       O  0.82198567  0.75015573  0.42913311    -0.86300
O2582       O  0.78689705  0.82593437  0.48693355    -0.86700
O2583       O  0.70225002  0.82328573  0.48429309    -0.86100
O2584       O  0.81945985  0.79442070  0.48556589    -0.87200
O2585       O  0.67144218  0.79000642  0.48293445    -0.86400
O2586       O  0.79254959  0.75553547  0.60859456    -0.86800
O2587       O  0.79239891  0.74837852  0.37604504    -0.86500
O2588       O  0.70046315  0.74531637  0.37605761    -0.86100
O2589       O  0.70029323  0.75260249  0.60852432    -0.86500
O2590       O  0.74243233  0.82733387  0.55355074    -0.86800
O2591       O  0.74538471  0.82411226  0.42718503    -0.88200
Zr2592     Zr  0.74645860  0.75190820  0.57883697     2.83100
Zr2593     Zr  0.74642494  0.74806247  0.40567681     2.83500
Zr2594     Zr  0.79861609  0.75125499  0.49260371     2.84100
Zr2595     Zr  0.69463384  0.74858404  0.49199554     2.83400
Zr2596     Zr  0.74525347  0.80219921  0.49108524     2.84200
O2597       O  0.71996730  0.77471126  0.44879434    -1.08700
O2598       O  0.77243781  0.77801139  0.53461373    -1.08200
C2599       C  0.74279279  0.82216716  0.59172585     1.06400
C2600       C  0.74393284  0.81853857  0.38933816     1.09000
C2601       C  0.81648040  0.75771203  0.59374217     1.06600
C2602       C  0.67638211  0.75290329  0.59304392     1.06900
C2603       C  0.67664097  0.74336759  0.39119696     1.06500
C2604       C  0.81636261  0.74953786  0.39111268     1.06100
C2605       C  0.81120010  0.81861121  0.48324549     1.06500
C2606       C  0.67840035  0.81453224  0.48055303     1.06000
H2607       H  0.78250256  0.78693580  0.43230588     0.32700
O2608       O  0.77168763  0.77576541  0.44904256    -1.29800
H2609       H  0.70752756  0.78821879  0.54914585     0.32700
O2610       O  0.71938630  0.77657519  0.53406946    -1.26600
N2611       N  0.49997819  0.54008391  0.58723435    -0.36800
N2612       N  0.53630383  0.99846044  0.40066848    -0.57300
N2613       N  0.49455741  0.95934767  0.40384463    -0.36800
N2614       N  0.95626809  0.99774043  0.39251881    -0.57300
C2615       C  0.52239861  0.55305267  0.57692786     0.26800
C2616       C  0.97991223  0.55841376  0.57571694     0.26800
C2617       C  0.51554106  0.94320595  0.39781754     0.26800
C2618       C  0.97636920  0.94261634  0.40261936     0.26800
C2619       C  0.55442720  0.51574742  0.58601102     0.35400
C2620       C  0.55107788  0.97669449  0.40867425     0.35400
C2621       C  0.94322586  0.52589120  0.58501476     0.35400
C2622       C  0.94110596  0.97580029  0.38868860     0.35400
C2623       C  0.51616010  0.57856895  0.56416575    -0.22100
C2624       C  0.98944672  0.58297581  0.56358570    -0.22100
C2625       C  0.50678737  0.91764380  0.38922439    -0.22100
C2626       C  0.98502290  0.91860776  0.41834004    -0.22100
C2627       C  0.57974914  0.50584379  0.59181737    -0.23100
C2628       C  0.57597754  0.98411963  0.42229008    -0.23100
C2629       C  0.91685045  0.51960656  0.59150131    -0.23100
C2630       C  0.91511269  0.98278478  0.38047466    -0.23100
C2631       C  0.54839542  0.54263816  0.57841991    -0.18500
C2632       C  0.95276910  0.55168315  0.57753440    -0.18500
C2633       C  0.94953770  0.95002852  0.39892652    -0.18500
C2634       C  0.54218632  0.95018592  0.40488150    -0.18500
H2635       H  0.52962872  0.59395673  0.55430171     0.14400
H2636       H  0.97806386  0.60012245  0.55420694     0.14400
H2637       H  0.51876048  0.90009711  0.38417211     0.14400
H2638       H  0.97305883  0.90247771  0.42984582     0.14400
H2639       H  0.59794710  0.51705427  0.59473244     0.12700
H2640       H  0.59214565  0.97126091  0.43115304     0.12700
H2641       H  0.90044456  0.53323963  0.59517391     0.12700
H2642       H  0.89824146  0.96964751  0.37745189     0.12700
H2643       H  0.49884592  0.52161319  0.60104302     0.26000
H2644       H  0.49505980  0.97813116  0.41679404     0.26000
O2645       O  0.50115654  0.95473385  0.87970353    -0.86700
O2646       O  0.50682243  0.95288011  0.11312515    -0.86800
O2647       O  0.54567342  0.92419969  0.00086896    -0.88500
O2648       O  0.96013974  0.92356100  0.99256461    -0.87300
O2649       O  0.92795484  0.95513443  0.99872754    -0.86800
O2650       O  0.57794529  0.95590758  0.99661953    -0.88200
O2651       O  0.50484450  0.92394783  0.05933897    -0.86700
O2652       O  0.50334795  0.92470869  0.93205015    -0.86300
Zr2653     Zr  0.50332514  0.94769939  0.99648775     2.84300
O2654       O  0.97724767  0.97137223  0.03353088    -1.08300
O2655       O  0.52827315  0.97336787  0.95191397    -1.09000
C2656       C  0.50287222  0.93058700  0.89412488     1.06400
C2657       C  0.50645561  0.92883213  0.09750899     1.06400
C2658       C  0.57014959  0.93165352  0.00090670     1.09400
C2659       C  0.93593862  0.93072473  0.99807604     1.07100
H2660       H  0.54209505  0.96218996  0.05326252     0.32700
O2661       O  0.53069109  0.97348707  0.03784875    -1.29200
H2662       H  0.96348363  0.96120987  0.93194364     0.32400
O2663       O  0.97521435  0.97257681  0.94800830    -1.30900
O2664       O  0.50744594  0.54547953  0.10753095    -0.86700
O2665       O  0.49812245  0.54592222  0.87422628    -0.88200
O2666       O  0.58043663  0.99926753  0.05549246    -0.86700
O2667       O  0.92822696  0.99974791  0.05884152    -0.86800
O2668       O  0.92358873  0.50161566  0.93161856    -0.86500
O2669       O  0.57648216  0.49855071  0.92120073    -0.86300
O2670       O  0.54708938  0.57325619  0.99232675    -0.86700
O2671       O  0.96289533  0.57505172  0.00100146    -0.86100
O2672       O  0.57861357  0.54070132  0.99083783    -0.87200
O2673       O  0.92954397  0.54439505  0.00255410    -0.86400
O2674       O  0.55290949  0.99905545  0.11077920    -0.86800
O2675       O  0.54467219  0.50008338  0.87109914    -0.86500
O2676       O  0.95153276  0.50244577  0.87661624    -0.86100
O2677       O  0.95933360  0.99824932  0.10994879    -0.86500
O2678       O  0.50648862  0.57443760  0.05412558    -0.86800
O2679       O  0.50084200  0.57552318  0.92727122    -0.88200
Zr2680     Zr  0.50611732  0.99971642  0.08420181     2.83100
Zr2681     Zr  0.50004399  0.49977383  0.90420897     2.83500
Zr2682     Zr  0.55544842  0.49849485  0.98636329     2.84100
Zr2683     Zr  0.94979950  0.50085299  0.99351531     2.83400
Zr2684     Zr  0.50422018  0.55159425  0.99024939     2.84200
O2685       O  0.97487074  0.52694593  0.94924367    -1.08700
O2686       O  0.53130810  0.52518258  0.03074111    -1.08200
C2687       C  0.50736685  0.56943439  0.09226232     1.06400
C2688       C  0.49824582  0.57002833  0.88935768     1.09000
C2689       C  0.57628600  0.99858578  0.09384502     1.06600
C2690       C  0.93496448  0.99978575  0.09654614     1.06900
C2691       C  0.92788917  0.50219400  0.89308726     1.06500
C2692       C  0.56913499  0.49940054  0.88395587     1.06100
C2693       C  0.57128521  0.56519289  0.99347710     1.06500
C2694       C  0.93857525  0.56829331  0.00620382     1.06000
H2695       H  0.53968909  0.53706713  0.92892875     0.32700
O2696       O  0.52874556  0.52555772  0.94552539    -1.29800
H2697       H  0.96899378  0.53689312  0.05205134     0.32700
O2698       O  0.97894154  0.52534286  0.03416361    -1.31200
N2699       N  0.75714598  0.78949110  0.09302176    -0.36800
N2700       N  0.79510842  0.74683230  0.10194754    -0.57300
N2701       N  0.75348028  0.70686337  0.09464447    -0.36800
N2702       N  0.71552277  0.74964117  0.08363034    -0.57300
C2703       C  0.77995451  0.80249166  0.08462399     0.26800
C2704       C  0.73712571  0.80452933  0.07837121     0.26800
C2705       C  0.77518491  0.69139478  0.09021885     0.26800
C2706       C  0.73254958  0.69276714  0.08055897     0.26800
C2707       C  0.81161521  0.76768135  0.10681171     0.35400
C2708       C  0.80946576  0.72487143  0.10976277     0.35400
C2709       C  0.70038215  0.77177903  0.08435063     0.35400
C2710       C  0.69862810  0.72879908  0.08281534     0.35400
C2711       C  0.77420846  0.82635757  0.06560705    -0.22100
C2712       C  0.74719333  0.82772816  0.06196538    -0.22100
C2713       C  0.76776337  0.66670044  0.07510712    -0.22100
C2714       C  0.74084420  0.66751283  0.06924252    -0.22100
C2715       C  0.83640743  0.75905762  0.11898490    -0.23100
C2716       C  0.83504933  0.73186415  0.12089730    -0.23100
C2717       C  0.67379003  0.76494207  0.08449645    -0.23100
C2718       C  0.67268379  0.73772752  0.08318936    -0.23100
C2719       C  0.80586898  0.79357260  0.09353869    -0.18500
C2720       C  0.70997804  0.79789020  0.07889777    -0.18500
C2721       C  0.70615588  0.70198279  0.07756603    -0.18500
C2722       C  0.80160466  0.69899111  0.09868516    -0.18500
H2723       H  0.78803299  0.84118615  0.05495026     0.14400
H2724       H  0.73626048  0.84371421  0.04782411     0.14400
H2725       H  0.78045580  0.64989363  0.06854772     0.14400
H2726       H  0.72886168  0.65145061  0.05727005     0.14400
H2727       H  0.85398165  0.77100464  0.12368944     0.12700
H2728       H  0.85145821  0.71866608  0.12721681     0.12700
H2729       H  0.65692233  0.77820611  0.08375480     0.12700
H2730       H  0.65480925  0.72590434  0.08152648     0.12700
H2731       H  0.75509668  0.77228806  0.11007531     0.26000
H2732       H  0.75282841  0.72544058  0.10838521     0.26000
C2733       C  0.99671382  0.74755916  0.24616517    -0.02700
C2734       C  0.75476991  0.99927753  0.24266102    -0.02700
C2735       C  0.99722657  0.74999515  0.73919680    -0.02700
C2736       C  0.74769166  0.49996486  0.73871966    -0.02700
C2737       C  0.73074273  0.99684070  0.21136070    -0.20100
C2738       C  0.72675291  0.51887034  0.17426290     0.36200
C2739       C  0.70136715  0.51955979  0.15571921    -0.26000
C2740       C  0.67899138  0.99848661  0.17520804     0.02600
C2741       C  0.68750458  0.97573293  0.19603084     0.27400
C2742       C  0.71352762  0.97449739  0.21133280    -0.25200
N2743       N  0.74493335  0.53976126  0.16452945    -0.82500
H2744       H  0.69612653  0.53643736  0.13707148     0.13200
C2745       C  0.65209786  0.99906234  0.15603874     0.02600
N2746       N  0.66960505  0.95379183  0.20145564    -0.81100
H2747       H  0.71982193  0.95580759  0.22394931     0.18000
C2748       C  0.64812501  0.98387973  0.12107468    -0.26000
C2749       C  0.62317459  0.98215192  0.10242140     0.36100
C2750       C  0.60129547  0.99661375  0.11831610    -0.20000
C2751       C  0.61120664  0.52061671  0.13385402    -0.25200
C2752       C  0.63739245  0.52135819  0.15008983     0.27400
H2753       H  0.66469984  0.97299261  0.10843925     0.13200
N2754       N  0.61998925  0.96559347  0.06711144    -0.82500
H2755       H  0.59804350  0.53734843  0.13850461     0.18100
N2756       N  0.64591696  0.54370889  0.17402038    -0.81100
H2757       H  0.63791255  0.95670523  0.05890142     0.33700
H2758       H  0.60710624  0.95016625  0.07479199     0.38200
H2759       H  0.63072297  0.55773264  0.17651070     0.33600
H2760       H  0.64979713  0.53685687  0.20327293     0.30300
H2761       H  0.67875983  0.93846991  0.21756560     0.33700
H2762       H  0.65394465  0.96050116  0.21945611     0.30300
H2763       H  0.75091721  0.54975187  0.19067146     0.38200
H2764       H  0.76154011  0.53130290  0.15078510     0.33700
C2765       C  0.78108301  0.00218398  0.21700443    -0.20100
C2766       C  0.78953746  0.98203970  0.18951540     0.36200
C2767       C  0.81520574  0.98284937  0.17214120    -0.26000
C2768       C  0.83292364  0.00392260  0.17995808     0.02600
C2769       C  0.82681313  0.52699008  0.20587146     0.27400
C2770       C  0.80040831  0.52607813  0.21952116    -0.25200
N2771       N  0.77253246  0.96002486  0.18039990    -0.82500
H2772       H  0.82140143  0.96665572  0.15263274     0.13200
C2773       C  0.86077539  0.00360923  0.16274079     0.02600
N2774       N  0.84331643  0.54904066  0.21692516    -0.81100
H2775       H  0.79356119  0.54323760  0.23605047     0.18000
C2776       C  0.87268466  0.52765452  0.14086036    -0.26000
C2777       C  0.89738991  0.52750477  0.12137672     0.36100
C2778       C  0.91199735  0.00277378  0.12507640    -0.20000
C2779       C  0.90345073  0.98146797  0.14923886    -0.25200
C2780       C  0.87822965  0.98178430  0.16839244     0.27400
H2781       H  0.85889783  0.54362432  0.13450668     0.13200
N2782       N  0.90395326  0.54871023  0.09443382    -0.82500
H2783       H  0.91597259  0.96406873  0.15180381     0.18100
N2784       N  0.87016301  0.95986043  0.19323813    -0.81100
H2785       H  0.88933210  0.54948685  0.07203109     0.33700
H2786       H  0.90332771  0.56655723  0.11075273     0.38200
H2787       H  0.88504693  0.94544002  0.19441413     0.33600
H2788       H  0.86782441  0.96706649  0.22275334     0.30300
H2789       H  0.83440077  0.56642172  0.20624340     0.33700
H2790       H  0.84212402  0.05036463  0.24187307     0.30300
H2791       H  0.78235198  0.94247967  0.18821186     0.38200
H2792       H  0.76929091  0.95970883  0.14913866     0.33700
C2793       C  0.50838615  0.90370977  0.12283073    -0.20100
C2794       C  0.50002637  0.90139938  0.16356251     0.36200
C2795       C  0.49943324  0.87588774  0.18234728    -0.26000
C2796       C  0.00002414  0.84884223  0.15300970     0.02600
C2797       C  0.99519413  0.85066361  0.11111393     0.27400
C2798       C  0.99513025  0.87571957  0.09213562    -0.25200
N2799       N  0.49121946  0.92455331  0.18522697    -0.82500
H2800       H  0.49257089  0.87410152  0.21325082     0.13200
C2801       C  0.50581064  0.82556046  0.18088938     0.02600
N2802       N  0.99104483  0.82689553  0.08753337    -0.81100
H2803       H  0.99109640  0.87611698  0.05996051     0.18000
C2804       C  0.97927632  0.80411933  0.16947779    -0.26000
C2805       C  0.97889667  0.77932254  0.18959977     0.36100
C2806       C  0.99954873  0.77226217  0.21694062    -0.20000
C2807       C  0.52524140  0.79041680  0.22221826    -0.25200
C2808       C  0.52662484  0.81615237  0.20531240     0.27400
H2809       H  0.96239681  0.80964263  0.15104973     0.13200
N2810       N  0.95656331  0.76210719  0.18413361    -0.82500
H2811       H  0.54244538  0.78354538  0.23836730     0.18100
N2812       N  0.54922070  0.83283523  0.21298634    -0.81100
H2813       H  0.95521811  0.75727017  0.15339774     0.33700
H2814       H  0.93945127  0.77256575  0.19209525     0.38200
H2815       H  0.56267497  0.82333507  0.23220250     0.33600
H2816       H  0.55897825  0.83572013  0.18549380     0.30300
H2817       H  0.98809675  0.83147857  0.05702523     0.33700
H2818       H  0.00843361  0.81565535  0.08892062     0.30300
H2819       H  0.50762176  0.93696600  0.18927040     0.38200
H2820       H  0.48481152  0.91934823  0.21419628     0.33700
C2821       C  0.99532745  0.72220119  0.21714427    -0.20100
C2822       C  0.51858447  0.71653411  0.19177828     0.36200
C2823       C  0.52030935  0.69098344  0.17428896    -0.26000
C2824       C  0.99876503  0.67105186  0.17745987     0.02600
C2825       C  0.97536299  0.67872085  0.19757043     0.27400
C2826       C  0.97360717  0.70420332  0.21602370    -0.25200
N2827       N  0.54049447  0.73436421  0.18743555    -0.82500
H2828       H  0.53875671  0.68526320  0.16009065     0.13200
C2829       C  0.00178119  0.64425930  0.15706934     0.02600
N2830       N  0.95327645  0.66071765  0.19882489    -0.81100
H2831       H  0.95487463  0.70968083  0.22912235     0.18000
C2832       C  0.99901179  0.62016638  0.17863582    -0.26000
C2833       C  0.00182045  0.59488594  0.15931466     0.36100
C2834       C  0.50791477  0.59429497  0.11812171    -0.20000
C2835       C  0.51701526  0.61781958  0.09955990    -0.25200
C2836       C  0.51340284  0.64310927  0.11687627     0.27400
H2837       H  0.99436934  0.62109178  0.21059595     0.13200
N2838       N  0.99798149  0.57085062  0.18185013    -0.82500
H2839       H  0.52602293  0.61671821  0.06987142     0.18100
N2840       N  0.52026657  0.66640764  0.09407008    -0.81100
H2841       H  0.99417135  0.57524927  0.21223521     0.33700
H2842       H  0.98097317  0.56158005  0.17051377     0.38200
H2843       H  0.52840128  0.66125293  0.06604977     0.33600
H2844       H  0.50274060  0.67672212  0.08799220     0.30300
H2845       H  0.93755610  0.66908289  0.21498200     0.33700
H2846       H  0.94659933  0.65792781  0.16912138     0.30300
H2847       H  0.54308635  0.73796339  0.15655477     0.38200
H2848       H  0.55756917  0.72496039  0.19816105     0.33700
C2849       C  0.59078346  0.91124520  0.00902235    -0.20100
C2850       C  0.61597556  0.91230844  0.99059312     0.36200
C2851       C  0.63562590  0.89392053  0.00190502    -0.26000
C2852       C  0.63078779  0.87477856  0.03172292     0.02600
C2853       C  0.60575584  0.87373895  0.05039028     0.27400
C2854       C  0.58597596  0.89184753  0.03863605    -0.25200
N2855       N  0.62151992  0.93207631  0.96052531    -0.82500
H2856       H  0.65494411  0.89468296  0.98777534     0.13200
C2857       C  0.65206694  0.85585486  0.04310077     0.02600
N2858       N  0.60066049  0.85448501  0.08148611    -0.81100
H2859       H  0.56700582  0.89141969  0.05366378     0.18000
C2860       C  0.66237441  0.85634207  0.08265504    -0.26000
C2861       C  0.68168085  0.83787582  0.09491275     0.36100
C2862       C  0.69062675  0.81865883  0.06704274    -0.20000
C2863       C  0.68094310  0.81863460  0.02727313    -0.25200
C2864       C  0.66170715  0.83704825  0.01497193     0.27400
H2865       H  0.65516212  0.87105272  0.10399454     0.13200
N2866       N  0.69223041  0.83848241  0.13535806    -0.82500
H2867       H  0.68819748  0.80388809  0.00601229     0.18100
N2868       N  0.65161367  0.83648062  0.97426173    -0.81100
H2869       H  0.68375926  0.85403024  0.15196518     0.33700
H2870       H  0.68664424  0.82083352  0.14959956     0.38200
H2871       H  0.66099674  0.82162063  0.95733723     0.33600
H2872       H  0.63160206  0.83129124  0.97569578     0.30300
H2873       H  0.58144710  0.85664441  0.09270508     0.33700
H2874       H  0.60167884  0.83560639  0.06821399     0.30300
H2875       H  0.60923234  0.92814351  0.93574676     0.38200
H2876       H  0.64099184  0.93033840  0.95020616     0.33700
C2877       C  0.91667638  0.90907781  0.00705992    -0.20100
C2878       C  0.88892762  0.91307965  0.00696191     0.36200
C2879       C  0.87226560  0.89312269  0.02246451    -0.26000
C2880       C  0.88267055  0.86899368  0.03648625     0.02600
C2881       C  0.90996948  0.86415001  0.03385670     0.27400
C2882       C  0.92668675  0.88419910  0.01939794    -0.25200
N2883       N  0.87774298  0.93715095  0.99100851    -0.82500
H2884       H  0.85105411  0.89627313  0.02344904     0.13200
C2885       C  0.86470446  0.84866943  0.05324493     0.02600
N2886       N  0.92060970  0.83898415  0.04646018    -0.81100
H2887       H  0.94780426  0.88053454  0.01915636     0.18000
C2888       C  0.85909438  0.82590966  0.03022428    -0.26000
C2889       C  0.84097714  0.80689778  0.04409855     0.36100
C2890       C  0.82826587  0.81093221  0.08160709    -0.20000
C2891       C  0.83485244  0.83303085  0.10556380    -0.25200
C2892       C  0.85329448  0.85186713  0.09186063     0.27400
H2893       H  0.86842071  0.82335143  0.00096118     0.13200
N2894       N  0.83498777  0.78377458  0.02000255    -0.82500
H2895       H  0.82512548  0.83582558  0.13446115     0.18100
N2896       N  0.86035088  0.87432434  0.11667313    -0.81100
H2897       H  0.84629099  0.78362497  0.99353514     0.33700
H2898       H  0.81518519  0.78508387  0.01097239     0.38200
H2899       H  0.85019857  0.87372525  0.14419868     0.33600
H2900       H  0.88048222  0.87261798  0.12367570     0.30300
H2901       H  0.94104032  0.83835692  0.04174235     0.33700
H2902       H  0.91766521  0.83734627  0.07766103     0.30300
H2903       H  0.88208624  0.93765537  0.96008282     0.38200
H2904       H  0.85710150  0.93685099  0.99328084     0.33700
C2905       C  0.91982193  0.58910449  0.01959898    -0.20100
C2906       C  0.92733849  0.60931042  0.04756638     0.36200
C2907       C  0.90846120  0.62714584  0.06206712    -0.26000
C2908       C  0.88204109  0.62496683  0.05015619     0.02600
C2909       C  0.87409989  0.60453325  0.02356863     0.27400
C2910       C  0.89313667  0.58697670  0.00808006    -0.25200
N2911       N  0.95352912  0.61134783  0.06374994    -0.82500
H2912       H  0.91440009  0.64270680  0.08301654     0.13200
C2913       C  0.86280140  0.64480116  0.06423666     0.02600
N2914       N  0.84664512  0.60161767  0.01288011    -0.81100
H2915       H  0.88703210  0.57122122  0.98762278     0.18000
C2916       C  0.85249535  0.66255201  0.03585315    -0.26000
C2917       C  0.83269127  0.68051317  0.04642808     0.36100
C2918       C  0.82290237  0.68052793  0.08658454    -0.20000
C2919       C  0.83372227  0.66324381  0.11539651    -0.25200
C2920       C  0.85385636  0.64534796  0.10457503     0.27400
H2921       H  0.85976191  0.66221972  0.00499695     0.13200
N2922       N  0.82316375  0.69835465  0.01568442    -0.82500
H2923       H  0.82634424  0.66370854  0.14616015     0.18100
N2924       N  0.86509606  0.62765652  0.13405008    -0.81100
H2925       H  0.81416544  0.68685131  0.99309169     0.33700
H2926       H  0.80873088  0.71136265  0.02649565     0.38200
H2927       H  0.85639015  0.63074374  0.16236266     0.33600
H2928       H  0.86041378  0.60821350  0.12530465     0.30300
H2929       H  0.84402804  0.58549867  0.99320007     0.33700
H2930       H  0.83629967  0.59705188  0.03934178     0.30300
H2931       H  0.96668223  0.61561776  0.04033173     0.38200
H2932       H  0.95837532  0.59314837  0.07696862     0.33700
C2933       C  0.68542226  0.68272169  0.06488094    -0.20100
C2934       C  0.66967890  0.66890777  0.09321909     0.36200
C2935       C  0.65119973  0.65024089  0.07918566    -0.26000
C2936       C  0.64806332  0.64512995  0.03766558     0.02600
C2937       C  0.66329813  0.65929847  0.00938255     0.27400
C2938       C  0.68183517  0.67803578  0.02330871    -0.25200
N2939       N  0.67171032  0.67340949  0.13613704    -0.82500
H2940       H  0.63922705  0.63952164  0.10087048     0.13200
C2941       C  0.62926356  0.62430739  0.02432592     0.02600
N2942       N  0.66011641  0.65428215  0.96676710    -0.81100
H2943       H  0.69388537  0.68878555  0.00176991     0.18000
C2944       C  0.60717548  0.63134164  0.00095018    -0.26000
C2945       C  0.58867221  0.61211158  0.98879941     0.36100
C2946       C  0.59204961  0.58541412  0.00071162    -0.20000
C2947       C  0.61472513  0.57829133  0.02294185    -0.25200
C2948       C  0.63345919  0.59747639  0.03463686     0.27400
H2949       H  0.60418767  0.65190446  0.99237626     0.13200
N2950       N  0.56666348  0.61972383  0.96398266    -0.82500
H2951       H  0.61750805  0.55783232  0.03220952     0.18100
N2952       N  0.65668400  0.58992147  0.05707398    -0.81100
H2953       H  0.57406528  0.62814966  0.93743569     0.33700
H2954       H  0.55591469  0.63432007  0.97943308     0.38200
H2955       H  0.65678286  0.56943667  0.06236299     0.33600
H2956       H  0.67314194  0.59395529  0.03896878     0.30300
H2957       H  0.67278128  0.66641559  0.95000837     0.33700
H2958       H  0.66593031  0.63465700  0.96118417     0.30300
H2959       H  0.68567164  0.68800895  0.14318590     0.38200
H2960       H  0.67839660  0.65577696  0.14931634     0.33700
C2961       C  0.77443632  0.49846033  0.76484623    -0.20100
C2962       C  0.79954312  0.98379024  0.75965298     0.36200
C2963       C  0.82364733  0.98582896  0.78079881    -0.26000
C2964       C  0.82491672  0.50235754  0.80749610     0.02600
C2965       C  0.80408061  0.52030815  0.81588821     0.27400
C2966       C  0.77948347  0.51826267  0.79470021    -0.25200
N2967       N  0.79960425  0.96640519  0.72517417    -0.82500
H2968       H  0.84004293  0.97326030  0.77165036     0.13200
C2969       C  0.85143534  0.50291859  0.82923223     0.02600
N2970       N  0.80802154  0.54080095  0.84568991    -0.81100
H2971       H  0.76416253  0.53273582  0.80103449     0.18000
C2972       C  0.87203769  0.52000914  0.81675001    -0.26000
C2973       C  0.89754937  0.51963797  0.83553601     0.36100
C2974       C  0.90283813  0.50168889  0.86752841    -0.20000
C2975       C  0.88746096  0.98116570  0.87394494    -0.25200
C2976       C  0.86162473  0.98259154  0.85776502     0.27400
H2977       H  0.86819357  0.53371173  0.79221919     0.13200
N2978       N  0.91778732  0.53780087  0.82277055    -0.82500
H2979       H  0.89245641  0.96495911  0.89409550     0.18100
N2980       N  0.84261861  0.96219538  0.86675226    -0.81100
H2981       H  0.91088276  0.54960918  0.79900122     0.33700
H2982       H  0.92176804  0.55067086  0.84696920     0.38200
H2983       H  0.85103708  0.94760362  0.88520536     0.33600
H2984       H  0.82739113  0.97097903  0.88349213     0.30300
H2985       H  0.79102796  0.55253294  0.84837913     0.33700
H2986       H  0.81076771  0.53152896  0.87365373     0.30300
H2987       H  0.80403376  0.94717599  0.73502854     0.38200
H2988       H  0.81460922  0.97235389  0.70542445     0.33700
C2989       C  0.59167132  0.49950441  0.85527962    -0.20100
C2990       C  0.60628254  0.97313563  0.85393098     0.36200
C2991       C  0.63210746  0.97304813  0.83725753    -0.26000
C2992       C  0.64387022  0.50034081  0.82327507     0.02600
C2993       C  0.63028252  0.52439808  0.83092231     0.27400
C2994       C  0.60436983  0.52373388  0.84697963    -0.25200
N2995       N  0.59347856  0.94857707  0.86400173    -0.82500
H2996       H  0.64215357  0.95433492  0.83190544     0.13200
C2997       C  0.67061864  0.50003771  0.80401804     0.02600
N2998       N  0.64304542  0.54937264  0.82301015    -0.81100
H2999       H  0.59456106  0.54217201  0.85501971     0.18000
C3000       C  0.67391608  0.99805677  0.76654175    -0.26000
C3001       C  0.69842128  0.99931178  0.74672803     0.36100
C3002       C  0.72076401  0.49921409  0.76321060    -0.20000
C3003       C  0.71915331  0.49654539  0.80577828    -0.25200
C3004       C  0.69438500  0.49708369  0.82623811     0.27400
H3005       H  0.65587513  0.99888023  0.74874041     0.13200
N3006       N  0.69821526  0.00158119  0.70351081    -0.82500
H3007       H  0.73698887  0.49379800  0.82334607     0.18100
N3008       N  0.69322875  0.49437091  0.86946232    -0.81100
H3009       H  0.68846397  0.98497205  0.69151521     0.33700
H3010       H  0.68736186  0.01850545  0.69566493     0.38200
H3011       H  0.71225634  0.49218242  0.88150366     0.33600
H3012       H  0.68564324  0.51210646  0.88128918     0.30300
H3013       H  0.63045181  0.56518813  0.83023954     0.33700
H3014       H  0.65935339  0.55087984  0.84243971     0.30300
H3015       H  0.57668349  0.94694391  0.84559097     0.38200
H3016       H  0.60564225  0.93241998  0.85683025     0.33700
C3017       C  0.49447003  0.59428701  0.86328013    -0.20100
C3018       C  0.97734435  0.61669183  0.87989305     0.36200
C3019       C  0.97707758  0.64160201  0.86057936    -0.26000
C3020       C  0.99250960  0.64648636  0.82618071     0.02600
C3021       C  0.50997066  0.62459645  0.80968562     0.27400
C3022       C  0.51010214  0.59923687  0.82887258    -0.25200
N3023       N  0.96143381  0.61291222  0.91528436    -0.82500
H3024       H  0.96515214  0.65748172  0.87324149     0.13200
C3025       C  0.99275700  0.67389301  0.80772416     0.02600
N3026       N  0.52563468  0.62908408  0.77413445    -0.81100
H3027       H  0.52308888  0.58370008  0.81782745     0.18000
C3028       C  0.51758959  0.68902892  0.80925282    -0.26000
C3029       C  0.51830138  0.71494150  0.79244406     0.36100
C3030       C  0.99524126  0.72438136  0.76685892    -0.20000
C3031       C  0.97085848  0.71113021  0.77393788    -0.25200
C3032       C  0.96944934  0.68612435  0.79328739     0.27400
H3033       H  0.53528360  0.68106853  0.82329679     0.13200
N3034       N  0.54219911  0.73012064  0.79560931    -0.82500
H3035       H  0.95247119  0.72005144  0.76432856     0.18100
N3036       N  0.94435305  0.67299836  0.79789140    -0.81100
H3037       H  0.54643238  0.73283607  0.82634293     0.33700
H3038       H  0.55762118  0.71903345  0.78293445     0.38200
H3039       H  0.92903558  0.68463046  0.78608660     0.33600
H3040       H  0.94487608  0.65554664  0.78062030     0.30300
H3041       H  0.53576466  0.61174961  0.76598330     0.33700
H3042       H  0.51261236  0.63328254  0.75033193     0.30300
H3043       H  0.96722067  0.62691732  0.93705994     0.38200
H3044       H  0.94170008  0.61665483  0.90759846     0.33700
C3045       C  0.00060748  0.77406100  0.77004219    -0.20100
C3046       C  0.97924493  0.78400234  0.79374688     0.36200
C3047       C  0.98071910  0.80966399  0.81158946    -0.26000
C3048       C  0.50498150  0.82638179  0.81449038     0.02600
C3049       C  0.52740852  0.81509617  0.79553509     0.27400
C3050       C  0.52585700  0.78937857  0.77825888    -0.25200
N3051       N  0.95549116  0.76879660  0.79816564    -0.82500
H3052       H  0.96371246  0.81737294  0.82773101     0.13200
C3053       C  0.50525539  0.85453775  0.83133426     0.02600
N3054       N  0.55155553  0.83009855  0.79243767    -0.81100
H3055       H  0.54387523  0.78095784  0.76630775     0.18000
C3056       C  0.52593111  0.86281187  0.85705903    -0.26000
C3057       C  0.52649898  0.88852907  0.87436800     0.36100
C3058       C  0.50566593  0.90673603  0.86689790    -0.20000
C3059       C  0.98635778  0.89911230  0.83078773    -0.25200
C3060       C  0.98517307  0.87325155  0.81327680     0.27400
H3061       H  0.54143143  0.84883658  0.86476828     0.13200
N3062       N  0.54780981  0.89600573  0.90104774    -0.82500
H3063       H  0.97105914  0.91351490  0.82395464     0.18100
N3064       N  0.96454176  0.86665902  0.78495041    -0.81100
H3065       H  0.56168420  0.88066703  0.90342705     0.33700
H3066       H  0.55761730  0.91205825  0.88790270     0.38200
H3067       H  0.95211944  0.88299900  0.78031417     0.33600
H3068       H  0.97350487  0.86251176  0.75714841     0.30300
H3069       H  0.56615153  0.81909991  0.77748315     0.33700
H3070       H  0.54765970  0.84665339  0.77432804     0.30300
H3071       H  0.95250085  0.76556886  0.82905994     0.38200
H3072       H  0.93962258  0.78010660  0.78740174     0.33700
C3073       C  0.84042003  0.76072587  0.62062406    -0.20100
C3074       C  0.86045696  0.77934057  0.61054690     0.36200
C3075       C  0.88590108  0.77750368  0.62830908    -0.26000
C3076       C  0.89222403  0.75760530  0.65653780     0.02600
C3077       C  0.87162159  0.74021258  0.66864686     0.27400
C3078       C  0.84614335  0.74181825  0.65059402    -0.25200
N3079       N  0.85504385  0.79974569  0.58129743    -0.82500
H3080       H  0.90116069  0.79133684  0.61911737     0.13200
C3081       C  0.92015959  0.75595870  0.67348327     0.02600
N3082       N  0.87638923  0.72084423  0.69942592    -0.81100
H3083       H  0.83119691  0.72734832  0.65868887     0.18000
C3084       C  0.93293575  0.77910044  0.68737918    -0.26000
C3085       C  0.95861789  0.77847351  0.70452428     0.36100
C3086       C  0.97169543  0.75371690  0.71159137    -0.20000
C3087       C  0.96066731  0.73150052  0.69105122    -0.25200
C3088       C  0.93514227  0.73222153  0.67320181     0.27400
H3089       H  0.92294514  0.79808285  0.68482688     0.13200
N3090       N  0.97157715  0.80329483  0.71235226    -0.82500
H3091       H  0.97118924  0.71276366  0.69109859     0.18100
N3092       N  0.92479869  0.70879113  0.65415751    -0.81100
H3093       H  0.95933827  0.81475736  0.73098899     0.33700
H3094       H  0.97341113  0.81334717  0.68486626     0.38200
H3095       H  0.93789311  0.70307948  0.63126594     0.33600
H3096       H  0.92441894  0.69361717  0.67569596     0.30300
H3097       H  0.86309331  0.72435443  0.72303870     0.33700
H3098       H  0.87219660  0.70207396  0.68726986     0.30300
H3099       H  0.84030328  0.81203784  0.59329206     0.38200
H3100       H  0.87170622  0.81174280  0.57700612     0.33700
C3101       C  0.52202204  0.74924880  0.71306179    -0.20100
C3102       C  0.53602873  0.72561011  0.70232193     0.36200
C3103       C  0.56104776  0.72717873  0.68314615    -0.26000
C3104       C  0.57262951  0.75171705  0.67291365     0.02600
C3105       C  0.55679674  0.77480762  0.67781945     0.27400
C3106       C  0.53111740  0.77279017  0.69441952    -0.25200
N3107       N  0.52456204  0.69989277  0.70836421    -0.82500
H3108       H  0.57143279  0.70890859  0.67606954     0.13200
C3109       C  0.60040624  0.75289793  0.65521260     0.02600
N3110       N  0.56723153  0.80059459  0.66807948    -0.81100
H3111       H  0.51957193  0.79075909  0.69764177     0.18000
C3112       C  0.60527967  0.76912064  0.62150014    -0.26000
C3113       C  0.63063834  0.77144232  0.60425981     0.36100
C3114       C  0.65194486  0.75567751  0.61870613    -0.20000
C3115       C  0.64746154  0.73953482  0.65263419    -0.25200
C3116       C  0.62212330  0.73827890  0.67135993     0.27400
H3117       H  0.58904517  0.77988392  0.60779573     0.13200
N3118       N  0.63474717  0.78950314  0.57115785    -0.82500
H3119       H  0.66346462  0.72719575  0.66372417     0.18100
N3120       N  0.61839642  0.72198964  0.70650660    -0.81100
H3121       H  0.61726317  0.79956109  0.56389629     0.33700
H3122       H  0.64826853  0.80394462  0.58086460     0.38200
H3123       H  0.63605066  0.71245898  0.71440753     0.33600
H3124       H  0.61356735  0.73458146  0.73063442     0.30300
H3125       H  0.55322492  0.81547469  0.67356804     0.33700
H3126       H  0.58309318  0.80430507  0.68769729     0.30300
H3127       H  0.53796373  0.68836011  0.72489179     0.38200
H3128       H  0.52222540  0.69085846  0.68002829     0.33700
C3129       C  0.74721375  0.65830889  0.62339003    -0.20100
C3130       C  0.72574365  0.64036598  0.62126545     0.36200
C3131       C  0.72753554  0.61513276  0.63937983    -0.26000
C3132       C  0.75083472  0.60661826  0.65881305     0.02600
C3133       C  0.77271154  0.62421129  0.66006103     0.27400
C3134       C  0.77059534  0.64991570  0.64270285    -0.25200
N3135       N  0.70227068  0.64744508  0.59934772    -0.82500
H3136       H  0.71068290  0.60183658  0.63756857     0.13200
C3137       C  0.75110627  0.57993778  0.67952114     0.02600
N3138       N  0.79711437  0.61579579  0.67837868    -0.81100
H3139       H  0.78768484  0.66293162  0.64244423     0.18000
C3140       C  0.77001968  0.56027384  0.67019634    -0.26000
C3141       C  0.76967861  0.53490700  0.68899010     0.36100
C3142       C  0.74912151  0.52788212  0.71636801    -0.20000
C3143       C  0.73194645  0.54911885  0.72793265    -0.25200
C3144       C  0.73242538  0.57432979  0.70972375     0.27400
H3145       H  0.78529365  0.56462680  0.64824933     0.13200
N3146       N  0.79088207  0.51675876  0.68110597    -0.82500
H3147       H  0.71824116  0.54694344  0.75264009     0.18100
N3148       N  0.71426561  0.59468006  0.72274517    -0.81100
H3149       H  0.80842032  0.52562294  0.69122897     0.33700
H3150       H  0.79259049  0.51416871  0.64984204     0.38200
H3151       H  0.70147616  0.58754582  0.74503379     0.33600
H3152       H  0.72538483  0.60990101  0.73615197     0.30300
H3153       H  0.81142141  0.63073504  0.67620225     0.33700
H3154       H  0.79357467  0.61293270  0.70920812     0.30300
H3155       H  0.69946622  0.63340605  0.57629446     0.38200
H3156       H  0.68617547  0.64618779  0.61906745     0.33700
C3157       C  0.74088923  0.84625705  0.61853289    -0.20100
C3158       C  0.75882084  0.85111805  0.65051461     0.36200
C3159       C  0.75910524  0.87631585  0.66989202    -0.26000
C3160       C  0.74167243  0.89691928  0.65838966     0.02600
C3161       C  0.72290042  0.89155503  0.62765400     0.27400
C3162       C  0.72297273  0.86658679  0.60786190    -0.25200
N3163       N  0.77735578  0.83087311  0.66222465    -0.82500
H3164       H  0.77358429  0.88015907  0.69343698     0.13200
C3165       C  0.74325953  0.92376107  0.67897887     0.02600
N3166       N  0.70378153  0.91145321  0.61665620    -0.81100
H3167       H  0.70906611  0.86300135  0.58346800     0.18000
C3168       C  0.74530389  0.94743258  0.65641215    -0.26000
C3169       C  0.74716290  0.97280886  0.67526080     0.36100
C3170       C  0.74804491  0.97496688  0.71826241    -0.20000
C3171       C  0.74567602  0.95078737  0.74019229    -0.25200
C3172       C  0.74278979  0.92589042  0.72135802     0.27400
H3173       H  0.74539217  0.94628147  0.62366349     0.13200
N3174       N  0.74735064  0.99589248  0.65019397    -0.82500
H3175       H  0.74596774  0.95127380  0.77297975     0.18100
N3176       N  0.73859208  0.90277067  0.74569063    -0.81100
H3177       H  0.72983181  0.99605993  0.63329477     0.33700
H3178       H  0.76303124  0.99403294  0.62979571     0.38200
H3179       H  0.75463164  0.90088997  0.76552735     0.33600
H3180       H  0.72154426  0.90586578  0.76297441     0.30300
H3181       H  0.69140838  0.90447242  0.59352893     0.33700
H3182       H  0.69172153  0.91482737  0.64183960     0.30300
H3183       H  0.79015067  0.82764109  0.63787006     0.38200
H3184       H  0.78907169  0.83746193  0.68639120     0.33700
C3185       C  0.83457740  0.66411368  0.50685966    -0.20100
C3186       C  0.82842066  0.64096558  0.52912363     0.36200
C3187       C  0.84851524  0.62315886  0.53933950    -0.26000
C3188       C  0.87470191  0.62815318  0.52830934     0.02600
C3189       C  0.88108305  0.65096582  0.50581258     0.27400
C3190       C  0.86086038  0.66873333  0.49502133    -0.25200
N3191       N  0.80205606  0.63600880  0.54313687    -0.82500
H3192       H  0.84374898  0.60558430  0.55677041     0.13200
C3193       C  0.89526294  0.60936934  0.54126386     0.02600
N3194       N  0.90809608  0.65618810  0.49484592    -0.81100
H3195       H  0.86570108  0.68646868  0.47805850     0.18000
C3196       C  0.90640299  0.59228402  0.51249857    -0.26000
C3197       C  0.92506724  0.57335515  0.52398181     0.36100
C3198       C  0.93316235  0.57184080  0.56485925    -0.20000
C3199       C  0.92212097  0.58901614  0.59369517    -0.25200
C3200       C  0.90296908  0.60778152  0.58223194     0.27400
H3201       H  0.90015176  0.59335973  0.48113128     0.13200
N3202       N  0.93532459  0.55566558  0.49374979    -0.82500
H3203       H  0.92826627  0.58753109  0.62505135     0.18100
N3204       N  0.89111381  0.62506636  0.61183733    -0.81100
H3205       H  0.95590111  0.55772979  0.49295148     0.33700
H3206       H  0.93082373  0.53615681  0.50208807     0.38200
H3207       H  0.89879279  0.62118951  0.64063205     0.33600
H3208       H  0.89648861  0.64456913  0.60472719     0.30300
H3209       H  0.90942349  0.67380112  0.47826761     0.33700
H3210       H  0.91877358  0.65930147  0.52161170     0.30300
H3211       H  0.79589870  0.61761719  0.53164919     0.38200
H3212       H  0.80261862  0.63467475  0.57468662     0.33700
C3213       C  0.57022217  0.56044280  0.56598443    -0.20100
C3214       C  0.57550403  0.56468713  0.52452755     0.36200
C3215       C  0.59406105  0.58379234  0.51327561    -0.26000
C3216       C  0.60752217  0.59870974  0.54266214     0.02600
C3217       C  0.60307980  0.59388614  0.58411238     0.27400
C3218       C  0.58423768  0.57479468  0.59545860    -0.25200
N3219       N  0.56188690  0.55019551  0.49336838    -0.82500
H3220       H  0.59761281  0.58744733  0.48143621     0.13200
C3221       C  0.62577424  0.61982118  0.52958943     0.02600
N3222       N  0.61753581  0.60861271  0.61429652    -0.81100
H3223       H  0.58010171  0.57138632  0.62718246     0.18000
C3224       C  0.61856856  0.64638872  0.53563341    -0.26000
C3225       C  0.63572725  0.66704708  0.52499651     0.36100
C3226       C  0.66072098  0.66102062  0.50792043    -0.20000
C3227       C  0.66737790  0.63426738  0.50061007    -0.25200
C3228       C  0.65018419  0.61360003  0.51151930     0.27400
H3229       H  0.59962588  0.65109370  0.54924730     0.13200
N3230       N  0.62792142  0.69397339  0.53288029    -0.82500
H3231       H  0.68633355  0.62937878  0.48724042     0.18100
N3232       N  0.65757938  0.58630889  0.50513152    -0.81100
H3233       H  0.62418988  0.69597019  0.56386380     0.33700
H3234       H  0.61027056  0.69762360  0.51725480     0.38200
H3235       H  0.67616273  0.58510761  0.49138694     0.33600
H3236       H  0.65948341  0.57744113  0.53356381     0.30300
H3237       H  0.61191501  0.60268504  0.64332958     0.33700
H3238       H  0.63755194  0.60371083  0.61124484     0.30300
H3239       H  0.54160210  0.55389706  0.49582368     0.38200
H3240       H  0.56513145  0.52990334  0.49796344     0.33700
C3241       C  0.56105469  0.92842529  0.41362894    -0.20100
C3242       C  0.58085815  0.92110887  0.38593852     0.36200
C3243       C  0.59920417  0.90141531  0.39656063    -0.26000
C3244       C  0.59771242  0.88890888  0.43432818     0.02600
C3245       C  0.57718861  0.89533882  0.46134728     0.27400
C3246       C  0.55910167  0.91527746  0.45084457    -0.25200
N3247       N  0.58230121  0.93366392  0.34719791    -0.82500
H3248       H  0.61484882  0.89613642  0.37562806     0.13200
C3249       C  0.61820967  0.86967209  0.44601787     0.02600
N3250       N  0.57501558  0.88168538  0.49934395    -0.81100
H3251       H  0.54353889  0.92080428  0.47177418     0.18000
C3252       C  0.63729796  0.87729235  0.47465832    -0.26000
C3253       C  0.65700114  0.85948201  0.48692804     0.36100
C3254       C  0.65746985  0.83365762  0.47042516    -0.20000
C3255       C  0.63812346  0.82600923  0.44204317    -0.25200
C3256       C  0.61843805  0.84382865  0.42963106     0.27400
H3257       H  0.63685937  0.89715688  0.48749848     0.13200
N3258       N  0.67608815  0.86747027  0.51669237    -0.82500
H3259       H  0.63863776  0.80620271  0.42898881     0.18100
N3260       N  0.59872941  0.83587693  0.40053016    -0.81100
H3261       H  0.68610540  0.88414819  0.50577821     0.33700
H3262       H  0.66588155  0.87312308  0.54284010     0.38200
H3263       H  0.60191848  0.81625787  0.39110669     0.33600
H3264       H  0.58038112  0.83615430  0.41509384     0.30300
H3265       H  0.55882506  0.88883227  0.51576240     0.33700
H3266       H  0.57108914  0.86168138  0.49296706     0.30300
H3267       H  0.58066822  0.91888593  0.32496926     0.38200
H3268       H  0.60098539  0.94241047  0.34453963     0.33700
C3269       C  0.83106741  0.83904512  0.47319430    -0.20100
C3270       C  0.82441508  0.86147663  0.44953351     0.36200
C3271       C  0.84440960  0.87875093  0.43667414    -0.26000
C3272       C  0.87085367  0.87398750  0.44691700     0.02600
C3273       C  0.87758068  0.85187035  0.47054754     0.27400
C3274       C  0.85770445  0.83452336  0.48340728    -0.25200
N3275       N  0.79763300  0.86626385  0.43711236    -0.82500
H3276       H  0.83930878  0.89587729  0.41842480     0.13200
C3277       C  0.89120014  0.89295492  0.43402494     0.02600
N3278       N  0.90464085  0.84682817  0.48100744    -0.81100
H3279       H  0.86322914  0.81722086  0.50090419     0.18000
C3280       C  0.89931431  0.91259889  0.46143143    -0.26000
C3281       C  0.91814658  0.93142884  0.45037050     0.36100
C3282       C  0.92914251  0.93056986  0.41112476    -0.20000
C3283       C  0.92118016  0.91077872  0.38372298    -0.25200
C3284       C  0.90214536  0.89183949  0.39487127     0.27400
H3285       H  0.89083612  0.91333153  0.49152848     0.13200
N3286       N  0.92597222  0.95106866  0.47957513    -0.82500
H3287       H  0.92985865  0.91016771  0.35377386     0.18100
N3288       N  0.89376949  0.87162644  0.36675613    -0.81100
H3289       H  0.94641967  0.94964134  0.48397003     0.33700
H3290       H  0.92167469  0.96988817  0.46800472     0.38200
H3291       H  0.90356260  0.87378971  0.33911693     0.33600
H3292       H  0.89962493  0.85327188  0.37849011     0.30300
H3293       H  0.90608366  0.84630990  0.51257266     0.33700
H3294       H  0.90969746  0.82801628  0.46986174     0.30300
H3295       H  0.79211003  0.88514384  0.44742029     0.38200
H3296       H  0.79699919  0.86638163  0.40546961     0.33700
C3297       C  0.65275602  0.74002634  0.36491753    -0.20100
C3298       C  0.63419212  0.71990384  0.37425585     0.36200
C3299       C  0.60848842  0.72061241  0.35781130    -0.26000
C3300       C  0.60043116  0.74113209  0.33185344     0.02600
C3301       C  0.61919933  0.76086944  0.32125011     0.27400
C3302       C  0.64512947  0.76012911  0.33789905    -0.25200
N3303       N  0.64123169  0.69899194  0.40162228    -0.82500
H3304       H  0.59448585  0.70529965  0.36626756     0.13200
C3305       C  0.57254848  0.74123770  0.31547476     0.02600
N3306       N  0.61173520  0.78182405  0.29409412    -0.81100
H3307       H  0.65893711  0.77602641  0.33142601     0.18000
C3308       C  0.55560208  0.76298048  0.32240269    -0.26000
C3309       C  0.53011752  0.76428184  0.30448379     0.36100
C3310       C  0.52164384  0.74424044  0.27676167    -0.20000
C3311       C  0.53662351  0.72035690  0.27740496    -0.25200
C3312       C  0.56230534  0.71917928  0.29412982     0.27400
H3313       H  0.56236279  0.77932499  0.34123638     0.13200
N3314       N  0.51362920  0.78678429  0.31274169    -0.82500
H3315       H  0.52910675  0.70251614  0.26326523     0.18100
N3316       N  0.57834825  0.69585990  0.28824572    -0.81100
H3317       H  0.52409481  0.80403646  0.30542164     0.33700
H3318       H  0.50991929  0.78725023  0.34384542     0.38200
H3319       H  0.56802815  0.68138756  0.27176644     0.33600
H3320       H  0.59455624  0.70133452  0.27050296     0.30300
H3321       H  0.62760022  0.79481886  0.28956431     0.33700
H3322       H  0.60751580  0.77314379  0.26599934     0.30300
H3323       H  0.62813789  0.69955310  0.42608228     0.38200
H3324       H  0.63863305  0.68083193  0.38660654     0.33700
C3325       C  0.84035169  0.75139788  0.36465455    -0.20100
C3326       C  0.84778882  0.73125607  0.33704267     0.36200
C3327       C  0.87370151  0.73124867  0.32033775    -0.26000
C3328       C  0.89263618  0.75070908  0.33118441     0.02600
C3329       C  0.88491228  0.77096572  0.35860264     0.27400
C3330       C  0.85900835  0.77123775  0.37434989    -0.25200
N3331       N  0.82960046  0.71013791  0.32778015    -0.82500
H3332       H  0.87926246  0.71578211  0.29909455     0.13200
C3333       C  0.92017363  0.75026025  0.31323871     0.02600
N3334       N  0.90371520  0.79070248  0.37171868    -0.81100
H3335       H  0.85367001  0.78645627  0.39620345     0.18000
C3336       C  0.93029621  0.77337661  0.29560193    -0.26000
C3337       C  0.95562086  0.77426151  0.27798549     0.36100
C3338       C  0.97117418  0.75054646  0.27388918    -0.20000
C3339       C  0.96245855  0.72858471  0.29713043    -0.25200
C3340       C  0.93696919  0.72779541  0.31521275     0.27400
H3341       H  0.91843908  0.79132955  0.29567448     0.13200
N3342       N  0.96560208  0.79989272  0.26697898    -0.82500
H3343       H  0.97487344  0.71105473  0.29859209     0.18100
N3344       N  0.92804509  0.70412660  0.33520081    -0.81100
H3345       H  0.96615044  0.81177497  0.29301846     0.33700
H3346       H  0.95215666  0.80868486  0.24698025     0.38200
H3347       H  0.94245055  0.68923895  0.33357228     0.33600
H3348       H  0.92561205  0.70871736  0.36585373     0.30300
H3349       H  0.89499697  0.80404526  0.39205146     0.33700
H3350       H  0.91871197  0.78091587  0.38764230     0.30300
H3351       H  0.81354847  0.71849038  0.31238279     0.38200
H3352       H  0.83827525  0.69645176  0.30794358     0.33700
C3353       C  0.74163346  0.84326424  0.36360370    -0.20100
C3354       C  0.72914286  0.86624641  0.38025131     0.36200
C3355       C  0.73227022  0.89126021  0.36206129    -0.26000
C3356       C  0.74596207  0.89454754  0.32560127     0.02600
C3357       C  0.75711177  0.87139101  0.30730242     0.27400
C3358       C  0.75510363  0.84616710  0.32668542    -0.25200
N3359       N  0.71364136  0.86428144  0.41661998    -0.82500
H3360       H  0.72437724  0.90853952  0.37744846     0.13200
C3361       C  0.74908684  0.92242672  0.30841038     0.02600
N3362       N  0.77083236  0.87355483  0.26942421    -0.81100
H3363       H  0.76489812  0.82900328  0.31367086     0.18000
C3364       C  0.77389025  0.93102550  0.29449142    -0.26000
C3365       C  0.77761328  0.95635999  0.27695018     0.36100
C3366       C  0.75569472  0.97402144  0.27155377    -0.20000
C3367       C  0.73260917  0.96739003  0.29354637    -0.25200
C3368       C  0.72828593  0.94147076  0.30881406     0.27400
H3369       H  0.79088704  0.91808051  0.29780145     0.13200
N3370       N  0.80413662  0.96431355  0.26781626    -0.82500
H3371       H  0.71631946  0.98140223  0.29382593     0.18100
N3372       N  0.70232092  0.93419709  0.32265592    -0.81100
H3373       H  0.81510937  0.96405427  0.29468714     0.33700
H3374       H  0.81241593  0.95009644  0.24843916     0.38200
H3375       H  0.68933507  0.95035022  0.32101271     0.33600
H3376       H  0.69497522  0.91969638  0.30283507     0.30300
H3377       H  0.77808710  0.85502237  0.26025113     0.33700
H3378       H  0.75705252  0.87945080  0.24757754     0.30300
H3379       H  0.69721009  0.85242139  0.40991224     0.38200
H3380       H  0.70630060  0.88283939  0.42551161     0.33700
C3381       C  0.74550571  0.65182392  0.36855992    -0.20100
C3382       C  0.75323612  0.64974871  0.32747681     0.36200
C3383       C  0.75318700  0.62445215  0.30784270    -0.26000
C3384       C  0.74600612  0.60099034  0.32841770     0.02600
C3385       C  0.73767109  0.60310596  0.36885765     0.27400
C3386       C  0.73741824  0.62814292  0.38818951    -0.25200
N3387       N  0.76157446  0.67302943  0.30598299    -0.82500
H3388       H  0.75931578  0.62292077  0.27652369     0.13200
C3389       C  0.74686295  0.57427372  0.30760681     0.02600
N3390       N  0.72946224  0.57968575  0.39029414    -0.81100
H3391       H  0.73082798  0.62897398  0.41933608     0.18000
C3392       C  0.76622491  0.55546028  0.31813598    -0.26000
C3393       C  0.76817759  0.53068347  0.29781048     0.36100
C3394       C  0.75076946  0.52423175  0.26511764    -0.20000
C3395       C  0.72867681  0.54148091  0.26037787    -0.25200
C3396       C  0.72729397  0.56666281  0.27950200     0.27400
H3397       H  0.78044903  0.56030944  0.34163700     0.13200
N3398       N  0.78879279  0.51269601  0.30932051    -0.82500
H3399       H  0.71233779  0.53604094  0.24110873     0.18100
N3400       N  0.70602752  0.58465531  0.27027015    -0.81100
H3401       H  0.78608168  0.50780243  0.33974925     0.33700
H3402       H  0.80694556  0.52252984  0.30678434     0.38200
H3403       H  0.69343879  0.57648742  0.24833748     0.33600
H3404       H  0.69476944  0.58708956  0.29652717     0.30300
H3405       H  0.72407129  0.58443049  0.41999389     0.33700
H3406       H  0.71242605  0.57238513  0.37604478     0.30300
H3407       H  0.77909088  0.67972304  0.31949978     0.38200
H3408       H  0.76626120  0.66820648  0.27603283     0.33700
loop_ 
_geom_bond_atom_site_label_1 
_geom_bond_atom_site_label_2 
_geom_bond_distance 
_geom_bond_site_symmetry_2 
_ccdc_geom_bond_type 
O1          Zr37   2.536       .  S
O1           C12   1.311       .  A
O2          Zr36   2.507       .  S
O2           C13   1.306       .  A
O3           Zr9   2.422       .  S
O3           C14   1.288       .  A
O4           Zr9   2.422       .  S
O4           C15   1.288       .  A
O5          Zr39   2.450       .  S
O5           C15   1.293       .  A
O6          Zr38   2.420       .  S
O6           C14   1.288       .  A
O7           Zr9   2.422       .  S
O7           C13   1.289       .  A
O8           Zr9   2.392       .  S
O8           C12   1.284       .  A
Zr9          O10   2.333       .  S
Zr9          O11   2.336       .  S
Zr9          O19   2.338       .  S
Zr9          O17   2.334       .  S
O10         Zr36   2.370       .  S
O10         Zr39   2.340       .  S
O11         Zr37   2.369       .  S
O11         Zr38   2.333       .  S
C12         C825   1.521       .  S
C13         C573   1.495       .  S
C14         C629   1.471       .  S
C15         C670   1.488       .  S
H16          O17   0.963       .  S
O17         Zr36   2.373       .  S
O17         Zr38   2.345       .  S
H18          O19   0.962       .  S
O19         Zr37   2.371       .  S
O19         Zr39   2.327       .  S
O20         Zr36   2.515       .  S
O20          C43   1.307       .  A
O21         Zr37   2.545       .  S
O21          C44   1.313       .  A
O22         Zr38   2.423       .  S
O22          C45   1.290       .  A
O23         Zr39   2.404       .  S
O23          C46   1.287       .  A
O24         Zr39   2.412       .  S
O24          C47   1.287       .  A
O25         Zr38   2.406       .  S
O25          C48   1.287       .  A
O26         Zr40   2.412       .  S
O26          C49   1.285       .  A
O27         Zr40   2.409       .  S
O27          C50   1.286       .  A
O28         Zr38   2.438       .  S
O28          C49   1.291       .  A
O29         Zr39   2.430       .  S
O29          C50   1.290       .  A
O30         Zr36   2.519       .  S
O30          C45   1.308       .  A
O31         Zr37   2.523       .  S
O31          C48   1.309       .  A
O32         Zr37   2.513       .  S
O32          C47   1.307       .  A
O33         Zr36   2.534       .  S
O33          C46   1.311       .  A
O34         Zr40   2.420       .  S
O34          C43   1.288       .  A
O35         Zr40   2.409       .  S
O35          C44   1.286       .  A
Zr36         O42   2.363       .  S
Zr36         O54   2.362       .  S
Zr37         O41   2.365       .  S
Zr37         O52   2.371       .  S
Zr38         O42   2.330       .  S
Zr38         O52   2.344       .  S
Zr39         O41   2.343       .  S
Zr39         O54   2.342       .  S
Zr40         O41   2.336       .  S
Zr40         O42   2.328       .  S
Zr40         O54   2.333       .  S
Zr40         O52   2.329       .  S
C43         C601   1.495       .  S
C44         C797   1.522       .  S
C45         C517   1.504       .  S
C46         C558   1.507       .  S
C47         C741   1.494       .  S
C48         C769   1.500       .  S
C49         C713   1.489       .  S
C50         C698   1.473       .  S
H51          O52   0.969       .  S
H53          O54   0.968       .  S
N55          H87   1.040       .  S
N55          C59   1.355   1_655  A
N55        C1764   1.353       .  A
N56          C64   1.349       .  A
N56         C915   1.348       .  A
N57          H88   1.040       .  S
N57          C61   1.351   1_655  A
N57        C1766   1.351       .  A
N58          C66   1.348       .  A
N58         C917   1.349       .  A
C59          C67   1.386       .  A
C59          C75   1.414       .  A
C60        N1759   1.351       .  A
C60          C76   1.411       .  A
C60          C68   1.387       .  A
C61          C69   1.387       .  A
C61          C78   1.408       .  A
C62        N1761   1.352       .  A
C62          C77   1.414       .  A
C62          C70   1.388       .  A
C63         N908   1.349   1_545  A
C63          C75   1.409       .  A
C63          C71   1.386       .  A
C64          C78   1.407       .  A
C64          C72   1.386       .  A
C65         N910   1.349       .  A
C65          C73   1.387       .  A
C65          C76   1.409       .  A
C66          C74   1.385       .  A
C66          C77   1.407       .  A
C67        C1772   1.375   1_455  A
C67          H79   1.082       .  S
C68        C1771   1.377       .  A
C68          H80   1.083       .  S
C69        C1774   1.369   1_455  A
C69          H81   1.082       .  S
C70        C1773   1.372       .  A
C70          H82   1.082       .  S
C71         C924   1.374   1_545  A
C71          H83   1.082       .  S
C72         C923   1.371       .  A
C72          H84   1.082       .  S
C73         C926   1.370   1_545  A
C73          H85   1.082       .  S
C74         C925   1.371       .  A
C74          H86   1.082       .  S
C75         C657   1.487       .  S
C76         C642   1.479       .  S
C77         C726   1.477       .  S
C78         C685   1.473       .  S
O89        Zr977   2.526       .  S
O89         C100   1.309       .  A
O90        Zr124   2.534       .  S
O90         C101   1.311       .  A
O91         Zr97   2.418       .  S
O91         C102   1.287       .  A
O92       Zr1801   2.424       .  S
O92         C103   1.289   1_556  A
O93        Zr979   2.419   1_554  S
O93         C103   1.286       .  A
O94        Zr978   2.445       .  S
O94         C102   1.291       .  A
O95         Zr97   2.397   1_554  S
O95         C101   1.285       .  A
O96         Zr97   2.411   1_655  S
O96         C100   1.287       .  A
Zr97       O1796   2.412   1_455  S
Zr97         O99   2.331       .  S
Zr97        O105   2.337   1_556  S
Zr97       O1802   2.332   1_456  S
Zr97       O1811   2.334   1_455  S
O98       Zr1801   2.336   1_554  S
O98       Zr1828   2.369       .  S
O98        Zr979   2.335   1_554  S
O99        Zr977   2.373   1_455  S
O99        Zr978   2.342       .  S
C100        C502   1.502   1_655  S
C101        C237   1.520       .  S
C102        C293   1.474       .  S
C103        C321   1.485       .  S
H104        O105   0.956       .  S
O105       Zr124   2.365       .  S
O105       Zr978   2.334   1_554  S
H106        O107   0.982       .  S
O107      Zr1801   2.340       .  S
O107      Zr2681   2.373       .  S
O107       Zr979   2.342       .  S
O108       Zr976   2.553   1_545  S
O108        C131   1.315       .  A
O109       Zr125   2.526   1_645  S
O109        C132   1.309       .  A
O110       Zr978   2.414   1_554  S
O110        C133   1.287       .  A
O111       Zr979   2.415   1_554  S
O111        C134   1.288       .  A
O112       Zr127   2.407   1_556  S
O112        C135   1.288       .  A
O113       Zr126   2.407       .  S
O113        C136   1.286       .  A
O114       Zr128   2.412       .  S
O114        C137   1.285       .  A
O115      Zr1832   2.407   1_554  S
O115        C138   1.283       .  A
O116       Zr126   2.432   1_545  S
O116        C137   1.290       .  A
O117       Zr127   2.451       .  S
O117        C138   1.293       .  A
O118       Zr124   2.522       .  S
O118        C133   1.309       .  A
O119       Zr125   2.537       .  S
O119        C136   1.312       .  A
O120      Zr1829   2.523       .  S
O120        C135   1.309       .  A
O121      Zr1828   2.523       .  S
O121        C134   1.309       .  A
O122       Zr128   2.388   1_554  S
O122        C131   1.283       .  A
O123       Zr128   2.413       .  S
O123        C132   1.287   1_455  A
Zr124       O960   2.538       .  S
Zr124      O1825   2.510   1_455  S
Zr124      O1802   2.370   1_455  S
Zr124       O982   2.364       .  S
Zr124      O2698   2.360   1_455  S
Zr125       O941   2.519       .  S
Zr125      O1824   2.525   1_465  S
Zr125       O140   2.369   1_565  S
Zr125       O951   2.366       .  S
Zr125      O2663   2.380   1_455  S
Zr125      O1833   2.370   1_465  S
Zr126       O946   2.437       .  S
Zr126       O962   2.412   1_556  S
Zr126       O130   2.332   1_566  S
Zr126       O140   2.348   1_565  S
Zr126       O951   2.336       .  S
Zr126       O957   2.342   1_556  S
Zr127       O945   2.436   1_545  S
Zr127       O963   2.406       .  S
Zr127       O129   2.337   1_554  S
Zr127       O142   2.334       .  S
Zr127       O950   2.337   1_545  S
Zr127       O959   2.348   1_544  S
Zr128      O1819   2.414   1_456  S
Zr128       O130   2.333   1_556  S
Zr128       O140   2.332       .  S
Zr128      O1833   2.328   1_455  S
Zr128      O1846   2.335   1_456  S
O129      Zr1829   2.365       .  S
O129      Zr1832   2.327       .  S
O130       Zr976   2.366   1_545  S
C131        C278   1.518       .  S
C132        C461   1.506       .  S
C133        C194   1.503       .  S
C134        C222   1.498       .  S
C135        C418   1.505       .  S
C136        C433   1.501   1_565  S
C137        C390   1.483   1_556  S
C138        C349   1.474       .  S
H139        O140   0.967       .  S
H141        O142   0.970       .  S
O142      Zr2680   2.363   1_545  S
O142      Zr1832   2.337   1_554  S
N143        H175   1.041       .  S
N143        C148   1.353       .  A
N143        C147   1.351       .  A
N144        C151   1.348       .  A
N144        C152   1.348       .  A
N145        H176   1.040       .  S
N145        C150   1.351       .  A
N145        C149   1.352       .  A
N146        C153   1.348       .  A
N146        C154   1.349       .  A
C147        C155   1.388       .  A
C147        C163   1.413       .  A
C148        C164   1.412       .  A
C148        C156   1.387       .  A
C149        C157   1.387       .  A
C149        C166   1.411       .  A
C150        C165   1.411       .  A
C150        C158   1.387       .  A
C151        C163   1.409       .  A
C151        C159   1.387       .  A
C152        C166   1.406       .  A
C152        C160   1.385       .  A
C153        C161   1.386       .  A
C153        C164   1.408       .  A
C154        C162   1.386       .  A
C154        C165   1.408       .  A
C155        C156   1.375       .  A
C155        H167   1.082       .  S
C156        H168   1.082       .  S
C157        C158   1.373       .  A
C157        H169   1.082       .  S
C158        H170   1.082       .  S
C159        C160   1.373       .  A
C159        H171   1.082       .  S
C160        H172   1.082       .  S
C161        C162   1.373       .  A
C161        H173   1.083       .  S
C162        H174   1.082       .  S
C163        C334   1.481       .  S
C164        C306   1.485       .  S
C165        C377   1.480       .  S
C166        C362   1.480       .  S
C177        C250   1.586       .  S
C177        C265   1.598       .  S
C177        C782   1.593       .  S
C177       C2458   1.592       .  S
C178        C181   1.600       .  S
C178        C209   1.589       .  S
C178        C810   1.597       .  S
C178       C1690   1.597       .  S
C179        C474   1.594       .  S
C179        C489   1.594       .  S
C179        C530   1.594       .  S
C179       C2249   1.587       .  S
C180        C405   1.592   1_545  S
C180        C446   1.589   1_545  S
C180        C586   1.596       .  S
C180       C1466   1.578   1_545  S
C181        C186   1.420       .  A
C181       C1034   1.434       .  A
C182        C183   1.417       .  A
C182       C1033   1.436   1_545  A
C182        N187   1.434       .  S
C183       C1036   1.408   1_545  A
C183        H188   1.084       .  S
C184        C189   1.515       .  S
C184        C185   1.411       .  A
C184       C1035   1.410       .  A
C185        C186   1.410       .  A
C185        N190   1.439       .  S
C186        H191   1.079       .  S
N187        H207   1.041       .  S
N187        H208   1.044       .  S
C189        C192   1.405       .  A
C189       C1048   1.419       .  A
N190        H205   1.046       .  S
N190        H206   1.045       .  S
C192        C193   1.411       .  A
C192        H197   1.083       .  S
C193        C194   1.418       .  A
C193        N198   1.439       .  S
C194       C1047   1.408       .  A
C195        C196   1.423       .  A
C195       C1046   1.408   1_545  A
C195        H199   1.083       .  S
C196       C1041   1.418   1_545  A
C196        N200   1.437       .  S
N198        H201   1.046       .  S
N198        H202   1.045       .  S
N200        H203   1.046       .  S
N200        H204   1.045       .  S
C209        C210   1.427       .  A
C209       C1066   1.420       .  A
C210        C211   1.422       .  A
C210        N215   1.432       .  S
C211        C212   1.409       .  A
C211        H216   1.083       .  S
C212        C217   1.516       .  S
C212       C1065   1.407       .  A
C213        C214   1.408       .  A
C213       C1064   1.409       .  A
C213        N218   1.433       .  S
C214       C1061   1.418       .  A
C214        H219   1.077       .  S
N215        H235   1.045       .  S
N215        H236   1.045       .  S
C217        C224   1.420       .  A
C217       C1072   1.407       .  A
N218        H233   1.045       .  S
N218       H1086   1.046       .  S
C220        C221   1.406       .  A
C220       C1069   1.404       .  A
C220        H225   1.084       .  S
C221       C1074   1.414       .  A
C221        N226   1.433       .  S
C222        C223   1.407       .  A
C222       C1073   1.413       .  A
C223        C224   1.424       .  A
C223        H227   1.083       .  S
C224        N228   1.437       .  S
N226        H229   1.046       .  S
N226        H230   1.046       .  S
N228        H231   1.046       .  S
N228        H232   1.046       .  S
H234       N1070   1.046       .  S
C237        C238   1.417       .  A
C237       C1946   1.420       .  A
C238        C239   1.426   1_455  A
C238        N243   1.436   1_455  S
C239       C1944   1.413   1_655  A
C239        H244   1.083       .  S
C240       C1949   1.507       .  S
C240        C241   1.404       .  A
C240       C1943   1.413       .  A
C241        C242   1.406       .  A
C241        N246   1.438       .  S
C242       C1941   1.419       .  A
C242        H247   1.082       .  S
N243        H263   1.045   1_655  S
N243        H264   1.045       .  S
C245       C1944   1.507       .  S
C245        C252   1.407       .  A
C245       C1952   1.406   1_455  A
N246        H261   1.046       .  S
N246        H262   1.046       .  S
C248        C249   1.417       .  A
C248       C1949   1.406       .  A
C248        H253   1.084       .  S
C249        C250   1.425       .  A
C249        N254   1.432       .  S
C250       C1955   1.422       .  A
C251        C252   1.415       .  A
C251       C1954   1.420       .  A
C251        H255   1.077       .  S
C252        N256   1.438       .  S
N254        H257   1.045       .  S
N254        H258   1.046       .  S
N256        H259   1.045       .  S
N256        H260   1.045       .  S
C265        C270   1.421       .  A
C265       C1970   1.427       .  A
C266        C267   1.416       .  A
C266       C1969   1.427   1_455  A
C266        N271   1.433       .  S
C267       C1972   1.410       .  A
C267        H272   1.082       .  S
C268        C273   1.524       .  S
C268        C269   1.413       .  A
C268       C1971   1.409       .  A
C269        C270   1.422       .  A
C269        N274   1.437       .  S
C270        H275   1.077       .  S
N271        H291   1.045       .  S
N271        H292   1.046       .  S
C273        C276   1.419       .  A
C273       C1984   1.410       .  A
N274        H289   1.045       .  S
N274        H290   1.046       .  S
C276        C277   1.431       .  A
C276        H281   1.083       .  S
C277       C1982   1.417       .  A
C277        N282   1.436       .  S
C278        C279   1.416       .  A
C278       C1981   1.413   1_455  A
C279        C280   1.412       .  A
C279        H283   1.084       .  S
C280       C1977   1.415       .  A
C280        N284   1.438       .  S
N282        H285   1.046       .  S
N282        H286   1.045       .  S
N284        H287   1.045       .  S
N284        H288   1.046       .  S
C293        C294   1.410       .  A
C293        C298   1.405   1_556  A
C294        C295   1.407       .  A
C294        N299   1.437       .  S
C295        C296   1.403   1_556  A
C295        H300   1.084       .  S
C296        C301   1.475       .  S
C296        C297   1.407       .  A
C297        C298   1.401       .  A
C297        N302   1.438       .  S
C298        H303   1.084       .  S
N299        H319   1.045       .  S
N299        H320   1.046       .  S
C301        C304   1.402       .  A
C301        C308   1.407       .  A
N302        H317   1.046       .  S
N302        H318   1.045       .  S
C304        C305   1.404       .  A
C304        H309   1.084       .  S
C305        C306   1.408       .  A
C305        N310   1.437       .  S
C306        C307   1.404       .  A
C307        C308   1.403       .  A
C307        H311   1.084       .  S
C308        N312   1.437   1_554  S
N310        H313   1.046       .  S
N310        H314   1.045       .  S
N312        H315   1.046       .  S
N312        H316   1.046       .  S
C321        C322   1.419       .  A
C321        C326   1.409       .  A
C322        C323   1.402       .  A
C322        N327   1.439       .  S
C323        C324   1.399       .  A
C323        H328   1.084       .  S
C324        C329   1.476       .  S
C324        C325   1.407       .  A
C325        C326   1.401       .  A
C325        N330   1.438       .  S
C326        H331   1.083       .  S
N327        H347   1.045   1_554  S
N327        H348   1.046       .  S
C329        C332   1.401       .  A
C329        C336   1.411       .  A
N330        H345   1.046       .  S
N330        H346   1.046       .  S
C332        C333   1.398       .  A
C332        H337   1.084       .  S
C333        C334   1.410       .  A
C333        N338   1.438       .  S
C334        C335   1.402       .  A
C335        C336   1.404       .  A
C335        H339   1.084       .  S
C336        N340   1.438       .  S
N338        H341   1.046   1_554  S
N338        H342   1.045       .  S
N340        H343   1.046       .  S
N340        H344   1.045       .  S
C349        C350   1.419       .  A
C349        C354   1.402   1_554  A
C350        C351   1.394       .  A
C350        N355   1.433       .  S
C351        C352   1.399       .  A
C351        H356   1.084       .  S
C352        C357   1.477       .  S
C352        C353   1.411       .  A
C353        C354   1.404   1_554  A
C353        N358   1.437   1_554  S
C354        H359   1.084       .  S
N355        H375   1.045       .  S
N355        H376   1.045       .  S
C357        C360   1.400       .  A
C357        C364   1.411       .  A
N358        H373   1.046       .  S
N358        H374   1.045   1_556  S
C360        C361   1.397       .  A
C360        H365   1.084   1_554  S
C361        C362   1.417       .  A
C361        N366   1.439       .  S
C362        C363   1.401       .  A
C363        C364   1.404       .  A
C363        H367   1.084       .  S
C364        N368   1.438       .  S
N366        H369   1.046   1_554  S
N366        H370   1.043       .  S
N368        H371   1.046       .  S
N368        H372   1.046       .  S
C377        C378   1.413       .  A
C377        C382   1.402       .  A
C378        C379   1.398       .  A
C378        N383   1.438       .  S
C379        C380   1.405       .  A
C379        H384   1.084       .  S
C380        C385   1.485       .  S
C380        C381   1.413       .  A
C381        C382   1.402       .  A
C381        N386   1.438   1_554  S
C382        H387   1.084       .  S
N383        H403   1.043       .  S
N383        H404   1.046       .  S
C385        C388   1.403       .  A
C385        C392   1.412       .  A
N386        H401   1.046       .  S
N386        H402   1.046       .  S
C388        C389   1.399   1_554  A
C388        H393   1.084       .  S
C389        C390   1.414   1_556  A
C389        N394   1.433       .  S
C390        C391   1.406       .  A
C391        C392   1.402       .  A
C391        H395   1.083       .  S
C392        N396   1.438       .  S
N394        H397   1.046       .  S
N394        H398   1.045   1_556  S
N396        H399   1.046       .  S
N396        H400   1.045       .  S
C405        C410   1.420   1_565  A
C405       C1258   1.446       .  A
C406        C407   1.405       .  A
C406       C1257   1.448       .  A
C406        N411   1.434       .  S
C407       C1260   1.389       .  A
C407        H412   1.085       .  S
C408        C413   1.502       .  S
C408        C409   1.412       .  A
C408       C1259   1.389   1_545  A
C409        C410   1.423       .  A
C409        N414   1.437       .  S
C410        H415   1.083       .  S
N411        H431   1.046       .  S
N411        H432   1.046       .  S
C413        C416   1.412       .  A
C413       C1272   1.407   1_545  A
N414        H429   1.046       .  S
N414        H430   1.045       .  S
C416        C417   1.423       .  A
C416        H421   1.083       .  S
C417        C418   1.414       .  A
C417        N422   1.436       .  S
C418       C1271   1.412   1_545  A
C419        C420   1.413       .  A
C419       C1270   1.410       .  A
C419        H423   1.084       .  S
C420       C1265   1.411       .  A
C420        N424   1.438       .  S
N422        H425   1.046       .  S
N422        H426   1.046       .  S
N424        H427   1.046       .  S
N424        H428   1.045       .  S
C433        C438   1.410       .  A
C433       C1286   1.412   1_545  A
C434        C435   1.420       .  A
C434       C1285   1.413       .  A
C434        N439   1.436       .  S
C435       C1288   1.408       .  A
C435        H440   1.083       .  S
C436        C441   1.510       .  S
C436        C437   1.409   1_565  A
C436       C1287   1.412       .  A
C437        C438   1.412       .  A
C437        N442   1.432       .  S
C438        H443   1.084       .  S
N439        H459   1.045       .  S
N439        H460   1.045       .  S
C441        C448   1.416       .  A
C441       C1296   1.395       .  A
N442        H457   1.045       .  S
N442        H458   1.046       .  S
C444        C445   1.406       .  A
C444       C1293   1.393       .  A
C444        H449   1.084       .  S
C445       C1298   1.435       .  A
C445        N450   1.432       .  S
C446        C447   1.415       .  A
C446       C1297   1.434       .  A
C447        C448   1.423       .  A
C447        H451   1.080       .  S
C448        N452   1.431       .  S
N450        H453   1.046       .  S
N450        H454   1.046       .  S
N452        H455   1.045       .  S
N452        H456   1.045   1_565  S
C461        C466   1.407   1_655  A
C461       C2166   1.418       .  A
C462        C463   1.415       .  A
C462       C2165   1.420       .  A
C462        N467   1.433       .  S
C463        C464   1.406       .  A
C463        H468   1.084       .  S
C464        C469   1.525       .  S
C464       C2169   1.421       .  A
C465        C466   1.425       .  A
C465       C2168   1.420   1_455  A
C465        N470   1.436       .  S
C466        H471   1.083       .  S
N467        H487   1.046       .  S
N467        H488   1.046       .  S
C469        C476   1.414       .  A
C469       C2176   1.409       .  A
N470        H485   1.045       .  S
N470        H486   1.045       .  S
C472        C473   1.419       .  A
C472       C2173   1.407   1_455  A
C472        H477   1.083       .  S
C473       C2178   1.425   1_455  A
C473        N478   1.432       .  S
C474        C475   1.420       .  A
C474       C2177   1.427       .  A
C475        C476   1.418       .  A
C475        H479   1.078       .  S
C476        N480   1.438       .  S
N478        H481   1.045       .  S
N478        H482   1.046       .  S
N480        H483   1.046       .  S
N480        H484   1.045       .  S
C489        C490   1.423       .  A
C489       C2198   1.421       .  A
C490        C491   1.420       .  A
C490        N495   1.431       .  S
C491       C2196   1.410       .  A
C491        H496   1.083       .  S
C492        C497   1.518       .  S
C492        C493   1.413   1_655  A
C492       C2195   1.410       .  A
C493        C494   1.412       .  A
C493        N498   1.439       .  S
C494       C2193   1.418   1_455  A
C494        H499   1.078       .  S
N495        H515   1.045       .  S
N495        H516   1.046       .  S
C497        C500   1.405   1_655  A
C497       C2208   1.421       .  A
N498        H513   1.046       .  S
N498        H514   1.046       .  S
C500        C501   1.410       .  A
C500        H505   1.083       .  S
C501        C502   1.416       .  A
C501        N506   1.439       .  S
C502       C2207   1.408   1_455  A
C503        C504   1.424       .  A
C503       C2206   1.408       .  A
C503        H507   1.083       .  S
C504       C2201   1.420       .  A
C504        N508   1.437       .  S
N506        H509   1.046       .  S
N506        H510   1.045       .  S
N508        H511   1.045       .  S
N508        H512   1.046       .  S
C517        C518   1.417       .  A
C517        C522   1.408       .  A
C518        C519   1.411       .  A
C518        N523   1.438       .  S
C519        C520   1.405       .  A
C519        H524   1.083       .  S
C520        C525   1.519       .  S
C520        C521   1.420       .  A
C521        C522   1.423       .  A
C521        N526   1.432       .  S
C522        H527   1.083       .  S
N523        H543   1.046       .  S
N523        H544   1.045       .  S
C525        C528   1.406       .  A
C525        C532   1.413       .  A
N526        H541   1.045       .  S
N526        H542   1.046       .  S
C528        C529   1.416       .  A
C528        H533   1.084       .  S
C529        C530   1.431       .  A
C529        N534   1.432       .  S
C530        C531   1.419       .  A
C531        C532   1.418       .  A
C531        H535   1.082       .  S
C532        N536   1.431       .  S
N534        H537   1.046       .  S
N534        H538   1.046       .  S
N536        H539   1.045       .  S
N536        H540   1.046       .  S
C545        C546   1.428       .  A
C545        C550   1.413       .  A
C545       C1883   1.589   1_455  S
C546        C547   1.418       .  A
C546        N551   1.432       .  S
C547        C548   1.409       .  A
C547        H552   1.083       .  S
C548        C553   1.523       .  S
C548        C549   1.420       .  A
C549        C550   1.414       .  A
C549        N554   1.438       .  S
C550        H555   1.081       .  S
N551        H571   1.046       .  S
N551        H572   1.046       .  S
C553        C556   1.405       .  A
C553        C560   1.425       .  A
N554        H569   1.045       .  S
N554        H570   1.046       .  S
C556        C557   1.406       .  A
C556        H561   1.082       .  S
C557        C558   1.419       .  A
C557        N562   1.439       .  S
C558        C559   1.406       .  A
C559        C560   1.426       .  A
C559        H563   1.083       .  S
C560        N564   1.437       .  S
N562        H565   1.046       .  S
N562        H566   1.046       .  S
N564        H567   1.046       .  S
N564        H568   1.046       .  S
C573        C574   1.412       .  A
C573        C578   1.407       .  A
C574        C575   1.408       .  A
C574        N579   1.433       .  S
C575        C576   1.406       .  A
C575        H580   1.084       .  S
C576        C581   1.507       .  S
C576        C577   1.416       .  A
C577        C578   1.421       .  A
C577        N582   1.436       .  S
C578        H583   1.084       .  S
N579        H599   1.046       .  S
N579        H600   1.045       .  S
C581        C584   1.406       .  A
C581        C588   1.403       .  A
N582        H597   1.046       .  S
N582        H598   1.045       .  S
C584        C585   1.422       .  A
C584        H589   1.083       .  S
C585        C586   1.429       .  A
C585        N590   1.430       .  S
C586        C587   1.429       .  A
C587        C588   1.408       .  A
C587        H591   1.078       .  S
C588        N592   1.439       .  S
N590        H593   1.046       .  S
N590        H594   1.045       .  S
N592        H595   1.046       .  S
N592        H596   1.046       .  S
C601        C602   1.416       .  A
C601        C606   1.405       .  A
C602        C603   1.418       .  A
C602        N607   1.438       .  S
C603        C604   1.407       .  A
C603        H608   1.084       .  S
C604        C609   1.506       .  S
C604        C605   1.414       .  A
C605        C606   1.416       .  A
C605        N610   1.437       .  S
C606        H611   1.084       .  S
N607        H627   1.044       .  S
N607        H628   1.046       .  S
C609        C612   1.409       .  A
C609        C616   1.402       .  A
N610        H625   1.046       .  S
N610        H626   1.045       .  S
C612        C613   1.423       .  A
C612        H617   1.083       .  S
C613        C614   1.426       .  A
C613        N618   1.429       .  S
C614        C615   1.424       .  A
C614       C1032   1.580       .  S
C615        C616   1.405       .  A
C615        H619   1.084       .  S
C616        N620   1.432       .  S
N618        H621   1.045       .  S
N618        H622   1.045       .  S
N620        H623   1.045       .  S
N620        H624   1.046       .  S
C629        C630   1.411       .  A
C629        C634   1.405       .  A
C630        C631   1.403       .  A
C630        N635   1.438       .  S
C631        C632   1.402       .  A
C631        H636   1.084       .  S
C632        C637   1.470       .  S
C632        C633   1.405       .  A
C633        C634   1.400       .  A
C633        N638   1.438       .  S
C634        H639   1.084       .  S
N635        H655   1.046       .  S
N635        H656   1.046       .  S
C637        C640   1.402       .  A
C637        C644   1.405       .  A
N638        H653   1.046       .  S
N638        H654   1.046       .  S
C640        C641   1.401       .  A
C640        H645   1.084       .  S
C641        C642   1.416       .  A
C641        N646   1.438       .  S
C642        C643   1.402       .  A
C643        C644   1.398       .  A
C643        H647   1.084       .  S
C644        N648   1.438       .  S
N646        H649   1.046       .  S
N646        H650   1.043       .  S
N648        H651   1.046       .  S
N648        H652   1.045       .  S
C657        C658   1.414       .  A
C657        C662   1.405       .  A
C658        C659   1.402       .  A
C658        N663   1.438       .  S
C659        C660   1.403       .  A
C659        H664   1.084       .  S
C660        C665   1.480       .  S
C660        C661   1.408       .  A
C661        C662   1.406       .  A
C661        N666   1.437       .  S
C662        H667   1.084       .  S
N663        H683   1.043       .  S
N663        H684   1.045       .  S
C665        C668   1.401       .  A
C665        C672   1.408       .  A
N666        H681   1.046       .  S
N666        H682   1.045       .  S
C668        C669   1.404       .  A
C668        H673   1.084       .  S
C669        C670   1.412       .  A
C669        N674   1.432       .  S
C670        C671   1.410       .  A
C671        C672   1.406       .  A
C671        H675   1.083       .  S
C672        N676   1.438       .  S
N674        H677   1.046       .  S
N674        H678   1.046       .  S
N676        H679   1.046       .  S
N676        H680   1.046       .  S
C685        C686   1.407       .  A
C685        C690   1.398       .  A
C686        C687   1.399       .  A
C686        N691   1.432       .  S
C687        C688   1.400       .  A
C687        H692   1.084       .  S
C688        C693   1.465       .  S
C688        C689   1.408       .  A
C689        C690   1.399       .  A
C689        N694   1.438       .  S
C690        H695   1.084       .  S
N691        H711   1.046       .  S
N691        H712   1.045       .  S
C693        C696   1.396       .  A
C693        C700   1.406       .  A
N694        H709   1.045       .  S
N694        H710   1.046       .  S
C696        C697   1.393       .  A
C696        H701   1.085       .  S
C697        C698   1.413       .  A
C697        N702   1.433       .  S
C698        C699   1.406       .  A
C699        C700   1.404       .  A
C699        H703   1.084       .  S
C700        N704   1.437       .  S
N702        H705   1.045       .  S
N702        H706   1.046       .  S
N704        H707   1.046       .  S
N704        H708   1.046       .  S
C713        C714   1.421       .  A
C713        C718   1.409       .  A
C714        C715   1.396       .  A
C714        N719   1.433       .  S
C715        C716   1.393       .  A
C715        H720   1.084       .  S
C716        C721   1.470       .  S
C716        C717   1.407       .  A
C717        C718   1.406       .  A
C717        N722   1.438       .  S
C718        H723   1.083       .  S
N719        H739   1.045       .  S
N719        H740   1.046       .  S
C721        C724   1.402       .  A
C721        C728   1.408       .  A
N722        H737   1.046       .  S
N722        H738   1.046       .  S
C724        C725   1.396       .  A
C724        H729   1.084       .  S
C725        C726   1.408       .  A
C725        N730   1.432       .  S
C726        C727   1.402       .  A
C727        C728   1.402       .  A
C727        H731   1.084       .  S
C728        N732   1.438       .  S
N730        H733   1.045       .  S
N730        H734   1.046       .  S
N732        H735   1.046       .  S
N732        H736   1.045       .  S
C741        C742   1.412       .  A
C741        C746   1.405       .  A
C742        C743   1.406       .  A
C742        N747   1.434       .  S
C743        C744   1.406       .  A
C743        H748   1.083       .  S
C744        C749   1.512       .  S
C744        C745   1.421       .  A
C745        C746   1.421       .  A
C745        N750   1.437       .  S
C746        H751   1.083       .  S
N747        H767   1.045       .  S
N747        H768   1.046       .  S
C749        C752   1.407       .  A
C749        C756   1.413       .  A
N750        H765   1.045       .  S
N750        H766   1.045       .  S
C752        C753   1.417       .  A
C752        H757   1.083       .  S
C753        C754   1.426       .  A
C753        N758   1.430       .  S
C754        C755   1.419       .  A
C754       C1881   1.593   1_455  S
C755        C756   1.411       .  A
C755        H759   1.079       .  S
C756        N760   1.438       .  S
N758        H761   1.046       .  S
N758        H762   1.045       .  S
N760        H763   1.046       .  S
N760        H764   1.046       .  S
C769        C770   1.413       .  A
C769        C774   1.409       .  A
C770        C771   1.423       .  A
C770        N775   1.436       .  S
C771        C772   1.413       .  A
C771        H776   1.083       .  S
C772        C777   1.512       .  S
C772        C773   1.414       .  A
C773        C774   1.409       .  A
C773        N778   1.438       .  S
C774        H779   1.084       .  S
N775        H795   1.045       .  S
N775        H796   1.046       .  S
C777        C780   1.400       .  A
C777        C784   1.413       .  A
N778        H793   1.046       .  S
N778        H794   1.046       .  S
C780        C781   1.410       .  A
C780        H785   1.084       .  S
C781        C782   1.436       .  A
C781        N786   1.432       .  S
C782        C783   1.419       .  A
C783        C784   1.421       .  A
C783        H787   1.083       .  S
C784        N788   1.436       .  S
N786        H789   1.046       .  S
N786        H790   1.046       .  S
N788        H791   1.045       .  S
N788        H792   1.046       .  S
C797        C798   1.427       .  A
C797        C802   1.409       .  A
C798        C799   1.413       .  A
C798        N803   1.440       .  S
C799        C800   1.403       .  A
C799        H804   1.083       .  S
C800        C805   1.525       .  S
C800        C801   1.424       .  A
C801        C802   1.428       .  A
C801        N806   1.437       .  S
C802        H807   1.083       .  S
N803        H823   1.046       .  S
N803        H824   1.046       .  S
C805        C808   1.405       .  A
C805        C812   1.419       .  A
N806        H821   1.045       .  S
N806        H822   1.046       .  S
C808        C809   1.417       .  A
C808        H813   1.083       .  S
C809        C810   1.432       .  A
C809        N814   1.431       .  S
C810        C811   1.419       .  A
C811        C812   1.420       .  A
C811        H815   1.083       .  S
C812        N816   1.437       .  S
N814        H817   1.046       .  S
N814        H818   1.046       .  S
N816        H819   1.046       .  S
N816        H820   1.046       .  S
C825        C826   1.417       .  A
C825        C830   1.421       .  A
C826        C827   1.427       .  A
C826        N831   1.436       .  S
C827        C828   1.414       .  A
C827        H832   1.083       .  S
C828        C833   1.504       .  S
C828        C829   1.402       .  A
C829        C830   1.403       .  A
C829        N834   1.439       .  S
C830        H835   1.082       .  S
N831        H851   1.045       .  S
N831        H852   1.045       .  S
C833        C836   1.404       .  A
C833        C840   1.407       .  A
N834        H849   1.045       .  S
N834        H850   1.046       .  S
C836        C837   1.412       .  A
C836        H841   1.084       .  S
C837        C838   1.425       .  A
C837        N842   1.431       .  S
C838        C839   1.424       .  A
C838       C1030   1.592   1_545  S
C839        C840   1.416       .  A
C839        H843   1.078       .  S
C840        N844   1.438       .  S
N842        H845   1.045       .  S
N842        H846   1.046       .  S
N844        H847   1.046       .  S
N844        H848   1.046       .  S
O853       Zr889   2.541       .  S
O853        C864   1.312       .  A
O854       Zr888   2.507       .  S
O854        C865   1.306       .  A
O855       Zr861   2.411       .  S
O855        C866   1.285       .  A
O856       Zr861   2.413       .  S
O856        C867   1.287       .  A
O857       Zr891   2.412       .  S
O857        C867   1.285       .  A
O858       Zr890   2.438       .  S
O858        C866   1.291       .  A
O859       Zr861   2.411       .  S
O859        C865   1.287       .  A
O860       Zr861   2.400       .  S
O860        C864   1.286       .  A
Zr861       O862   2.327       .  S
Zr861       O863   2.332       .  S
Zr861       O871   2.335       .  S
Zr861       O869   2.333       .  S
O862       Zr888   2.361       .  S
O862       Zr891   2.331       .  S
O863       Zr889   2.373       .  S
O863       Zr890   2.335       .  S
C864       C1677   1.525       .  S
C865       C1425   1.494       .  S
C866       C1481   1.481       .  S
C867       C1522   1.472       .  S
H868        O869   0.957       .  S
O869       Zr888   2.365       .  S
O869       Zr890   2.332       .  S
H870        O871   0.963       .  S
O871       Zr889   2.370       .  S
O871       Zr891   2.336       .  S
O872       Zr888   2.498       .  S
O872        C895   1.304       .  A
O873       Zr889   2.544       .  S
O873        C896   1.313       .  A
O874       Zr890   2.410       .  S
O874        C897   1.287       .  A
O875       Zr891   2.402       .  S
O875        C898   1.286       .  A
O876       Zr891   2.401       .  S
O876        C899   1.285       .  A
O877       Zr890   2.406       .  S
O877        C900   1.286       .  A
O878       Zr892   2.401       .  S
O878        C901   1.283       .  A
O879       Zr892   2.424       .  S
O879        C902   1.288       .  A
O880       Zr890   2.414       .  S
O880        C901   1.287       .  A
O881       Zr891   2.427       .  S
O881        C902   1.288       .  A
O882       Zr888   2.549       .  S
O882        C897   1.314       .  A
O883       Zr889   2.520       .  S
O883        C900   1.308       .  A
O884       Zr889   2.528       .  S
O884        C899   1.309       .  A
O885       Zr888   2.543       .  S
O885        C898   1.312       .  A
O886       Zr892   2.428       .  S
O886        C895   1.291       .  A
O887       Zr892   2.408       .  S
O887        C896   1.287       .  A
Zr888       O894   2.362       .  S
Zr888       O906   2.374       .  S
Zr889       O893   2.369       .  S
Zr889       O904   2.369       .  S
Zr890       O894   2.340       .  S
Zr890       O904   2.340       .  S
Zr891       O893   2.328       .  S
Zr891       O906   2.336       .  S
Zr892       O893   2.334       .  S
Zr892       O894   2.334       .  S
Zr892       O906   2.326       .  S
Zr892       O904   2.343       .  S
C895       C1453   1.501       .  S
C896       C1649   1.515       .  S
C897       C1369   1.515       .  S
C898       C1410   1.511       .  S
C899       C1593   1.497       .  S
C900       C1621   1.496       .  S
C901       C1565   1.472       .  S
C902       C1550   1.480       .  S
H903        O904   0.966       .  S
H905        O906   0.969       .  S
N907        H939   1.039   1_455  S
N907       C2616   1.354   1_455  A
N907        C911   1.353       .  A
N908        C916   1.350       .  A
N909        H940   1.040       .  S
N909       C2618   1.353       .  A
N909        C913   1.352   1_655  A
N910        C918   1.348   1_545  A
C911        C919   1.388       .  A
C911        C927   1.415       .  A
C912       N2611   1.354       .  A
C912        C928   1.414       .  A
C912        C920   1.387       .  A
C913        C921   1.388       .  A
C913        C930   1.413       .  A
C914       N2613   1.347       .  A
C914        C929   1.406       .  A
C914        C922   1.387       .  A
C915        C927   1.408       .  A
C915        C923   1.388       .  A
C916        C930   1.409       .  A
C916        C924   1.386       .  A
C917        C925   1.386       .  A
C917        C928   1.407       .  A
C918        C926   1.387       .  A
C918        C929   1.407       .  A
C919       C2624   1.373   1_455  A
C919        H931   1.082       .  S
C920       C2623   1.370       .  A
C920        H932   1.082       .  S
C921       C2626   1.372   1_455  A
C921        H933   1.082       .  S
C922       C2625   1.374       .  A
C922        H934   1.083       .  S
C923        H935   1.083       .  S
C924        H936   1.082       .  S
C925        H937   1.082       .  S
C926        H938   1.082       .  S
C927       C1509   1.478       .  S
C928       C1494   1.481       .  S
C929       C1578   1.467       .  S
C930       C1537   1.479       .  S
O941        C952   1.308       .  A
O942       Zr976   2.552       .  S
O942        C953   1.314       .  A
O943       Zr949   2.425       .  S
O943        C954   1.288       .  A
O944      Zr2653   2.417   1_554  S
O944        C955   1.287       .  A
O945        C955   1.290       .  A
O946        C954   1.290       .  A
O947       Zr949   2.397   1_554  S
O947        C953   1.285       .  A
O948       Zr949   2.406       .  S
O948        C952   1.286       .  A
Zr949      O2648   2.418   1_455  S
Zr949      O2654   2.334   1_456  S
Zr949       O951   2.329       .  S
Zr949      O2663   2.334   1_455  S
Zr949       O957   2.336   1_556  S
O950      Zr2653   2.340   1_554  S
O950      Zr2680   2.366       .  S
C952       C1354   1.498       .  S
C953       C1089   1.526       .  S
C954       C1145   1.472       .  S
C955       C1173   1.476       .  S
H956        O957   0.958       .  S
O957       Zr976   2.370       .  S
H958        O959   0.980       .  S
O959      Zr2653   2.345       .  S
O959      Zr1829   2.380   1_565  S
O960        C983   1.311       .  A
O961       Zr977   2.523       .  S
O961        C984   1.309       .  A
O962        C985   1.287       .  A
O963        C986   1.286       .  A
O964       Zr979   2.428       .  S
O964        C987   1.291       .  A
O965       Zr978   2.403       .  S
O965        C988   1.285       .  A
O966       Zr980   2.419       .  S
O966        C989   1.287       .  A
O967      Zr2684   2.418       .  S
O967        C990   1.286   1_556  A
O968       Zr978   2.424       .  S
O968        C989   1.288       .  A
O969       Zr979   2.428   1_554  S
O969        C990   1.290       .  A
O970       Zr976   2.525       .  S
O970        C985   1.310       .  A
O971       Zr977   2.549   1_455  S
O971        C988   1.315       .  A
O972      Zr2681   2.520       .  S
O972        C987   1.308       .  A
O973      Zr2680   2.533   1_545  S
O973        C986   1.310       .  A
O974       Zr980   2.387   1_554  S
O974        C983   1.283       .  A
O975       Zr980   2.409       .  S
O975        C984   1.287   1_455  A
Zr976      O2677   2.526   1_455  S
Zr976      O2654   2.369   1_455  S
Zr976      O1846   2.363   1_465  S
Zr977      O2676   2.545       .  S
Zr977      O1811   2.377       .  S
Zr977      O2685   2.370       .  S
Zr977       O992   2.372   1_655  S
Zr978       O982   2.335   1_556  S
Zr978       O992   2.351       .  S
Zr979       O981   2.336       .  S
Zr979       O994   2.337   1_556  S
Zr980      O2671   2.425   1_456  S
Zr980      O2685   2.331   1_455  S
Zr980       O982   2.334   1_556  S
Zr980      O2698   2.328   1_456  S
Zr980       O992   2.328       .  S
O981      Zr2681   2.362       .  S
O981      Zr2684   2.333       .  S
C983       C1130   1.521       .  S
C984       C1313   1.505       .  S
C985       C1046   1.501       .  S
C986       C1074   1.501       .  S
C987       C1270   1.507       .  S
C988       C1285   1.501       .  S
C989       C1242   1.479       .  S
C990       C1201   1.476       .  S
H991        O992   0.972       .  S
H993        O994   0.972       .  S
O994      Zr1828   2.363       .  S
O994      Zr2684   2.333   1_554  S
N995       H1027   1.038       .  S
N995       C1000   1.354       .  A
N995        C999   1.354       .  A
N996       C1003   1.349       .  A
N996       C1004   1.349       .  A
N997       H1028   1.037       .  S
N997       C1002   1.353       .  A
N997       C1001   1.354       .  A
N998       C1005   1.351       .  A
N998       C1006   1.350       .  A
C999       C1007   1.388       .  A
C999       C1015   1.417       .  A
C1000      C1016   1.413       .  A
C1000      C1008   1.386       .  A
C1001      C1009   1.387       .  A
C1001      C1018   1.414       .  A
C1002      C1017   1.414       .  A
C1002      C1010   1.388       .  A
C1003      C1015   1.411       .  A
C1003      C1011   1.387       .  A
C1004      C1018   1.408       .  A
C1004      C1012   1.386       .  A
C1005      C1013   1.387       .  A
C1005      C1016   1.411       .  A
C1006      C1014   1.386       .  A
C1006      C1017   1.409       .  A
C1007      C1008   1.372       .  A
C1007      H1019   1.082       .  S
C1008      H1020   1.082       .  S
C1009      C1010   1.370       .  A
C1009      H1021   1.082       .  S
C1010      H1022   1.082       .  S
C1011      C1012   1.371       .  A
C1011      H1023   1.082       .  S
C1012      H1024   1.083       .  S
C1013      C1014   1.368       .  A
C1013      H1025   1.082       .  S
C1014      H1026   1.082       .  S
C1015      C1186   1.486       .  S
C1016      C1158   1.484       .  S
C1017      C1229   1.478       .  S
C1018      C1214   1.480       .  S
C1029      C1102   1.588       .  S
C1029      C1117   1.591       .  S
C1029      C3310   1.591       .  S
C1029      C1634   1.589       .  S
C1030      C1033   1.600       .  S
C1030      C1061   1.583   1_565  S
C1030      C1662   1.595       .  S
C1031      C1326   1.589       .  S
C1031      C1341   1.593       .  S
C1031      C1382   1.594       .  S
C1031      C3101   1.588       .  S
C1032      C1257   1.599       .  S
C1032      C1298   1.594       .  S
C1032      C1438   1.599       .  S
C1033      C1038   1.419       .  A
C1034      C1035   1.419       .  A
C1034      N1039   1.434       .  S
C1035      H1040   1.083       .  S
C1036      C1041   1.512       .  S
C1036      C1037   1.409       .  A
C1037      C1038   1.411       .  A
C1037      N1042   1.439       .  S
C1038      H1043   1.078       .  S
N1039      H1059   1.041       .  S
N1039      H1060   1.045       .  S
C1041      C1044   1.405       .  A
N1042      H1057   1.045       .  S
N1042      H1058   1.046       .  S
C1044      C1045   1.411       .  A
C1044      H1049   1.084       .  S
C1045      C1046   1.418       .  A
C1045      N1050   1.439       .  S
C1047      C1048   1.424       .  A
C1047      H1051   1.083       .  S
C1048      N1052   1.437       .  S
N1050      H1053   1.046       .  S
N1050      H1054   1.045       .  S
N1052      H1055   1.046       .  S
N1052      H1056   1.045       .  S
C1061      C1062   1.426   1_545  A
C1062      C1063   1.421       .  A
C1062      N1067   1.432       .  S
C1063      C1064   1.409   1_565  A
C1063      H1068   1.083       .  S
C1064      C1069   1.514       .  S
C1065      C1066   1.410       .  A
C1065      N1070   1.433       .  S
C1066      H1071   1.077       .  S
N1067      H1087   1.045       .  S
N1067      H1088   1.045       .  S
C1069      C1076   1.421   1_545  A
N1070      H1085   1.045       .  S
C1072      C1073   1.409       .  A
C1072      H1077   1.084       .  S
C1073      N1078   1.433       .  S
C1074      C1075   1.409   1_545  A
C1075      C1076   1.426       .  A
C1075      H1079   1.083       .  S
C1076      N1080   1.437       .  S
N1078      H1081   1.045       .  S
N1078      H1082   1.046       .  S
N1080      H1083   1.046       .  S
N1080      H1084   1.046       .  S
C1089      C1090   1.416       .  A
C1089      C2798   1.421   1_455  A
C1090      C1091   1.427       .  A
C1090      N1095   1.436       .  S
C1091      C2796   1.415       .  A
C1091      H1096   1.083       .  S
C1092      C2801   1.507       .  S
C1092      C2795   1.413       .  A
C1092      C1093   1.404       .  A
C1093      C1094   1.408       .  A
C1093      N1098   1.439       .  S
C1094      C2793   1.418       .  A
C1094      H1099   1.081       .  S
N1095      H1115   1.046       .  S
N1095      H1116   1.045       .  S
C1097      C2796   1.516       .  S
C1097      C2804   1.409   1_455  A
C1097      C1104   1.411       .  A
N1098      H1113   1.045       .  S
N1098      H1114   1.045       .  S
C1100      C2801   1.407       .  A
C1100      C1101   1.419       .  A
C1100      H1105   1.084       .  S
C1101      C1102   1.426       .  A
C1101      N1106   1.432       .  S
C1102      C2807   1.421       .  A
C1103      C2806   1.420   1_455  A
C1103      C1104   1.415       .  A
C1103      H1107   1.077       .  S
C1104      N1108   1.438       .  S
N1106      H1109   1.045       .  S
N1106      H1110   1.045       .  S
N1108      H1111   1.046       .  S
N1108      H1112   1.046       .  S
C1117      C2822   1.424       .  A
C1117      C1122   1.423       .  A
C1118      C2821   1.427   1_455  A
C1118      C1119   1.410       .  A
C1118      N1123   1.432       .  S
C1119      C2824   1.404   1_455  A
C1119      H1124   1.084       .  S
C1120      C1125   1.518       .  S
C1120      C2823   1.407       .  A
C1120      C1121   1.414       .  A
C1121      C1122   1.421       .  A
C1121      N1126   1.438       .  S
C1122      H1127   1.078       .  S
N1123      H1143   1.045       .  S
N1123      H1144   1.046       .  S
C1125      C1128   1.417       .  A
C1125      C2836   1.412       .  A
N1126      H1141   1.046       .  S
N1126      H1142   1.046       .  S
C1128      C1129   1.426       .  A
C1128      H1133   1.083       .  S
C1129      C2834   1.415       .  A
C1129      N1134   1.437       .  S
C1130      C2833   1.416       .  A
C1130      C1131   1.419       .  A
C1131      C1132   1.404       .  A
C1131      H1135   1.083       .  S
C1132      C2829   1.407       .  A
C1132      N1136   1.439       .  S
N1134      H1137   1.045       .  S
N1134      H1138   1.046       .  S
N1136      H1139   1.046       .  S
N1136      H1140   1.046   1_455  S
C1145      C1146   1.410       .  A
C1145      C1150   1.403   1_556  A
C1146      C1147   1.408       .  A
C1146      N1151   1.438       .  S
C1147      C1148   1.405   1_556  A
C1147      H1152   1.084       .  S
C1148      C1153   1.480       .  S
C1148      C1149   1.409       .  A
C1149      C1150   1.400       .  A
C1149      N1154   1.438       .  S
C1150      H1155   1.084       .  S
N1151      H1171   1.046       .  S
N1151      H1172   1.046       .  S
C1153      C1156   1.405       .  A
C1153      C1160   1.409       .  A
N1154      H1169   1.046       .  S
N1154      H1170   1.045       .  S
C1156      C1157   1.405       .  A
C1156      H1161   1.084       .  S
C1157      C1158   1.407       .  A
C1157      N1162   1.437       .  S
C1158      C1159   1.402       .  A
C1159      C1160   1.404       .  A
C1159      H1163   1.084   1_554  S
C1160      N1164   1.437   1_554  S
N1162      H1165   1.046       .  S
N1162      H1166   1.046       .  S
N1164      H1167   1.046       .  S
N1164      H1168   1.046       .  S
C1173      C1174   1.411       .  A
C1173      C1178   1.407       .  A
C1174      C1175   1.404       .  A
C1174      N1179   1.437   1_554  S
C1175      C1176   1.401       .  A
C1175      H1180   1.084       .  S
C1176      C1181   1.470       .  S
C1176      C1177   1.405       .  A
C1177      C1178   1.400       .  A
C1177      N1182   1.438       .  S
C1178      H1183   1.084       .  S
N1179      H1199   1.045       .  S
N1179      H1200   1.046       .  S
C1181      C1184   1.400       .  A
C1181      C1188   1.406       .  A
N1182      H1197   1.046       .  S
N1182      H1198   1.046       .  S
C1184      C1185   1.403       .  A
C1184      H1189   1.084       .  S
C1185      C1186   1.413       .  A
C1185      N1190   1.438       .  S
C1186      C1187   1.402       .  A
C1187      C1188   1.401       .  A
C1187      H1191   1.084       .  S
C1188      N1192   1.438       .  S
N1190      H1193   1.046   1_554  S
N1190      H1194   1.045   1_554  S
N1192      H1195   1.045       .  S
N1192      H1196   1.046       .  S
C1201      C1202   1.421       .  A
C1201      C1206   1.405       .  A
C1202      C1203   1.393       .  A
C1202      N1207   1.433       .  S
C1203      C1204   1.396       .  A
C1203      H1208   1.084       .  S
C1204      C1209   1.469       .  S
C1204      C1205   1.406       .  A
C1205      C1206   1.402       .  A
C1205      N1210   1.438       .  S
C1206      H1211   1.084   1_554  S
N1207      H1227   1.044       .  S
N1207      H1228   1.045       .  S
C1209      C1212   1.396       .  A
C1209      C1216   1.408       .  A
N1210      H1225   1.045   1_554  S
N1210      H1226   1.046       .  S
C1212      C1213   1.394       .  A
C1212      H1217   1.084   1_554  S
C1213      C1214   1.418       .  A
C1213      N1218   1.440       .  S
C1214      C1215   1.403       .  A
C1215      C1216   1.405       .  A
C1215      H1219   1.083       .  S
C1216      N1220   1.438       .  S
N1218      H1221   1.046   1_554  S
N1218      H1222   1.042       .  S
N1220      H1223   1.045       .  S
N1220      H1224   1.046       .  S
C1229      C1230   1.407       .  A
C1229      C1234   1.402       .  A
C1230      C1231   1.396       .  A
C1230      N1235   1.432       .  S
C1231      C1232   1.403       .  A
C1231      H1236   1.084       .  S
C1232      C1237   1.469       .  S
C1232      C1233   1.407       .  A
C1233      C1234   1.401       .  A
C1233      N1238   1.438   1_554  S
C1234      H1239   1.084       .  S
N1235      H1255   1.046       .  S
N1235      H1256   1.045       .  S
C1237      C1240   1.398       .  A
C1237      C1244   1.406       .  A
N1238      H1253   1.046       .  S
N1238      H1254   1.045       .  S
C1240      C1241   1.399   1_554  A
C1240      H1245   1.084   1_554  S
C1241      C1242   1.414       .  A
C1241      N1246   1.433       .  S
C1242      C1243   1.408   1_556  A
C1243      C1244   1.402       .  A
C1243      H1247   1.083       .  S
C1244      N1248   1.438       .  S
N1246      H1249   1.046       .  S
N1246      H1250   1.046       .  S
N1248      H1251   1.046       .  S
N1248      H1252   1.046       .  S
C1257      C1262   1.421       .  A
C1258      C1259   1.405       .  A
C1258      N1263   1.433       .  S
C1259      H1264   1.085       .  S
C1260      C1265   1.508       .  S
C1260      C1261   1.414       .  A
C1261      C1262   1.428       .  A
C1261      N1266   1.436       .  S
C1262      H1267   1.083       .  S
N1263      H1283   1.046       .  S
N1263      H1284   1.046       .  S
C1265      C1268   1.411       .  A
N1266      H1281   1.045       .  S
N1266      H1282   1.045       .  S
C1268      C1269   1.423       .  A
C1268      H1273   1.083       .  S
C1269      C1270   1.415       .  A
C1269      N1274   1.437       .  S
C1271      C1272   1.408       .  A
C1271      H1275   1.082       .  S
C1272      N1276   1.438       .  S
N1274      H1277   1.045       .  S
N1274      H1278   1.045       .  S
N1276      H1279   1.046       .  S
N1276      H1280   1.045       .  S
C1285      C1290   1.411       .  A
C1286      C1287   1.420       .  A
C1286      N1291   1.431       .  S
C1287      H1292   1.083       .  S
C1288      C1293   1.513       .  S
C1288      C1289   1.416       .  A
C1289      C1290   1.421       .  A
C1289      N1294   1.438       .  S
C1290      H1295   1.084       .  S
N1291      H1311   1.045       .  S
N1291      H1312   1.046       .  S
C1293      C1300   1.420       .  A
N1294      H1309   1.046       .  S
N1294      H1310   1.044       .  S
C1296      C1297   1.406       .  A
C1296      H1301   1.084       .  S
C1297      N1302   1.432   1_565  S
C1298      C1299   1.417       .  A
C1299      C1300   1.430       .  A
C1299      H1303   1.080       .  S
C1300      N1304   1.437       .  S
N1302      H1305   1.046   1_545  S
N1302      H1306   1.046       .  S
N1304      H1307   1.045       .  S
N1304      H1308   1.044       .  S
C1313      C3018   1.419       .  A
C1313      C1318   1.407   1_655  A
C1314      C3017   1.418       .  A
C1314      C1315   1.408       .  A
C1314      N1319   1.433       .  S
C1315      C1316   1.402       .  A
C1315      H1320   1.084       .  S
C1316      C1321   1.514       .  S
C1316      C3021   1.420       .  A
C1317      C3020   1.419   1_455  A
C1317      C1318   1.423       .  A
C1317      N1322   1.437       .  S
C1318      H1323   1.083       .  S
N1319      H1339   1.046       .  S
N1319      H1340   1.046       .  S
C1321      C3028   1.407       .  A
C1321      C1328   1.412       .  A
N1322      H1337   1.045       .  S
N1322      H1338   1.046       .  S
C1324      C3025   1.404   1_455  A
C1324      C1325   1.415       .  A
C1324      H1329   1.084       .  S
C1325      C3030   1.425   1_455  A
C1325      N1330   1.432       .  S
C1326      C3029   1.426       .  A
C1326      C1327   1.419       .  A
C1327      C1328   1.415       .  A
C1327      H1331   1.079       .  S
C1328      N1332   1.438       .  S
N1330      H1333   1.045       .  S
N1330      H1334   1.046       .  S
N1332      H1335   1.046       .  S
N1332      H1336   1.045       .  S
C1341      C1342   1.423       .  A
C1341      C3050   1.421       .  A
C1342      C1343   1.420       .  A
C1342      N1347   1.431       .  S
C1343      C3048   1.410       .  A
C1343      H1348   1.083       .  S
C1344      C1349   1.512       .  S
C1344      C3047   1.408   1_455  A
C1344      C1345   1.412       .  A
C1345      C1346   1.409       .  A
C1345      N1350   1.438       .  S
C1346      C3045   1.417       .  A
C1346      H1351   1.079       .  S
N1347      H1367   1.045       .  S
N1347      H1368   1.046       .  S
C1349      C1352   1.404       .  A
C1349      C3060   1.420   1_455  A
N1350      H1365   1.046       .  S
N1350      H1366   1.046       .  S
C1352      C1353   1.408       .  A
C1352      H1357   1.083       .  S
C1353      C1354   1.417       .  A
C1353      N1358   1.439       .  S
C1354      C3059   1.406   1_455  A
C1355      C3058   1.406       .  A
C1355      C1356   1.424       .  A
C1355      H1359   1.083       .  S
C1356      C3053   1.421       .  A
C1356      N1360   1.437       .  S
N1358      H1361   1.046       .  S
N1358      H1362   1.045       .  S
N1360      H1363   1.045       .  S
N1360      H1364   1.046       .  S
C1369      C1370   1.423       .  A
C1369      C1374   1.407       .  A
C1370      C1371   1.417       .  A
C1370      N1375   1.438       .  S
C1371      C1372   1.406       .  A
C1371      H1376   1.083       .  S
C1372      C1377   1.522       .  S
C1372      C1373   1.419       .  A
C1373      C1374   1.423       .  A
C1373      N1378   1.431       .  S
C1374      H1379   1.083       .  S
N1375      H1395   1.045       .  S
N1375      H1396   1.046       .  S
C1377      C1380   1.406       .  A
C1377      C1384   1.415       .  A
N1378      H1393   1.045       .  S
N1378      H1394   1.046       .  S
C1380      C1381   1.418       .  A
C1380      H1385   1.083       .  S
C1381      C1382   1.430       .  A
C1381      N1386   1.432       .  S
C1382      C1383   1.420       .  A
C1383      C1384   1.421       .  A
C1383      H1387   1.081       .  S
C1384      N1388   1.437       .  S
N1386      H1389   1.045       .  S
N1386      H1390   1.045       .  S
N1388      H1391   1.046       .  S
N1388      H1392   1.046       .  S
C1397      C1398   1.426       .  A
C1397      C1402   1.415       .  A
C1397      C2735   1.592   1_455  S
C1398      C1399   1.420       .  A
C1398      N1403   1.432       .  S
C1399      C1400   1.410       .  A
C1399      H1404   1.083       .  S
C1400      C1405   1.525       .  S
C1400      C1401   1.419       .  A
C1401      C1402   1.415       .  A
C1401      N1406   1.438       .  S
C1402      H1407   1.080       .  S
N1403      H1423   1.045       .  S
N1403      H1424   1.045       .  S
C1405      C1408   1.405       .  A
C1405      C1412   1.425       .  A
N1406      H1421   1.046       .  S
N1406      H1422   1.046       .  S
C1408      C1409   1.409       .  A
C1408      H1413   1.082       .  S
C1409      C1410   1.421       .  A
C1409      N1414   1.440       .  S
C1410      C1411   1.408       .  A
C1411      C1412   1.428       .  A
C1411      H1415   1.083       .  S
C1412      N1416   1.437       .  S
N1414      H1417   1.046       .  S
N1414      H1418   1.046       .  S
N1416      H1419   1.046       .  S
N1416      H1420   1.046       .  S
C1425      C1426   1.415       .  A
C1425      C1430   1.406       .  A
C1426      C1427   1.405       .  A
C1426      N1431   1.433       .  S
C1427      C1428   1.402       .  A
C1427      H1432   1.084       .  S
C1428      C1433   1.501       .  S
C1428      C1429   1.416       .  A
C1429      C1430   1.420       .  A
C1429      N1434   1.436       .  S
C1430      H1435   1.083       .  S
N1431      H1451   1.046       .  S
N1431      H1452   1.046       .  S
C1433      C1436   1.404       .  A
C1433      C1440   1.400       .  A
N1434      H1449   1.046       .  S
N1434      H1450   1.046       .  S
C1436      C1437   1.421       .  A
C1436      H1441   1.084       .  S
C1437      C1438   1.429       .  A
C1437      N1442   1.429       .  S
C1438      C1439   1.431       .  A
C1439      C1440   1.407       .  A
C1439      H1443   1.077       .  S
C1440      N1444   1.439       .  S
N1442      H1445   1.046       .  S
N1442      H1446   1.045       .  S
N1444      H1447   1.046       .  S
N1444      H1448   1.046       .  S
C1453      C1454   1.412       .  A
C1453      C1458   1.408       .  A
C1454      C1455   1.419       .  A
C1454      N1459   1.437       .  S
C1455      C1456   1.415       .  A
C1455      H1460   1.083       .  S
C1456      C1461   1.515       .  S
C1456      C1457   1.414       .  A
C1457      C1458   1.410       .  A
C1457      N1462   1.438       .  S
C1458      H1463   1.083       .  S
N1459      H1479   1.045       .  S
N1459      H1480   1.045       .  S
C1461      C1464   1.412       .  A
C1461      C1468   1.406       .  A
N1462      H1477   1.045       .  S
N1462      H1478   1.046       .  S
C1464      C1465   1.419       .  A
C1464      H1469   1.083       .  S
C1465      C1466   1.423       .  A
C1465      N1470   1.429       .  S
C1466      C1467   1.424       .  A
C1467      C1468   1.405       .  A
C1467      H1471   1.084       .  S
C1468      N1472   1.432       .  S
N1470      H1473   1.045       .  S
N1470      H1474   1.045       .  S
N1472      H1475   1.046       .  S
N1472      H1476   1.046       .  S
C1481      C1482   1.416       .  A
C1481      C1486   1.407       .  A
C1482      C1483   1.396       .  A
C1482      N1487   1.434       .  S
C1483      C1484   1.396       .  A
C1483      H1488   1.084       .  S
C1484      C1489   1.474       .  S
C1484      C1485   1.410       .  A
C1485      C1486   1.406       .  A
C1485      N1490   1.438       .  S
C1486      H1491   1.084       .  S
N1487      H1507   1.046       .  S
N1487      H1508   1.046       .  S
C1489      C1492   1.399       .  A
C1489      C1496   1.413       .  A
N1490      H1505   1.046       .  S
N1490      H1506   1.045       .  S
C1492      C1493   1.397       .  A
C1492      H1497   1.084       .  S
C1493      C1494   1.407       .  A
C1493      N1498   1.432       .  S
C1494      C1495   1.400       .  A
C1495      C1496   1.406       .  A
C1495      H1499   1.083       .  S
C1496      N1500   1.438       .  S
N1498      H1501   1.046       .  S
N1498      H1502   1.045       .  S
N1500      H1503   1.046       .  S
N1500      H1504   1.045       .  S
C1509      C1510   1.411       .  A
C1509      C1514   1.402       .  A
C1510      C1511   1.389       .  A
C1510      N1515   1.433       .  S
C1511      C1512   1.398       .  A
C1511      H1516   1.084       .  S
C1512      C1517   1.470       .  S
C1512      C1513   1.412       .  A
C1513      C1514   1.406       .  A
C1513      N1518   1.438       .  S
C1514      H1519   1.083       .  S
N1515      H1535   1.045       .  S
N1515      H1536   1.045       .  S
C1517      C1520   1.398       .  A
C1517      C1524   1.408       .  A
N1518      H1533   1.046       .  S
N1518      H1534   1.046       .  S
C1520      C1521   1.395       .  A
C1520      H1525   1.084       .  S
C1521      C1522   1.413       .  A
C1521      N1526   1.434       .  S
C1522      C1523   1.405       .  A
C1523      C1524   1.401       .  A
C1523      H1527   1.084       .  S
C1524      N1528   1.438       .  S
N1526      H1529   1.046       .  S
N1526      H1530   1.046       .  S
N1528      H1531   1.046       .  S
N1528      H1532   1.045       .  S
C1537      C1538   1.403       .  A
C1537      C1542   1.401       .  A
C1538      C1539   1.402       .  A
C1538      N1543   1.432       .  S
C1539      C1540   1.406       .  A
C1539      H1544   1.084       .  S
C1540      C1545   1.480       .  S
C1540      C1541   1.410       .  A
C1541      C1542   1.401       .  A
C1541      N1546   1.438       .  S
C1542      H1547   1.084       .  S
N1543      H1563   1.046       .  S
N1543      H1564   1.046       .  S
C1545      C1548   1.401       .  A
C1545      C1552   1.410       .  A
N1546      H1561   1.046       .  S
N1546      H1562   1.046       .  S
C1548      C1549   1.399       .  A
C1548      H1553   1.084       .  S
C1549      C1550   1.411       .  A
C1549      N1554   1.432       .  S
C1550      C1551   1.407       .  A
C1551      C1552   1.404       .  A
C1551      H1555   1.084       .  S
C1552      N1556   1.438       .  S
N1554      H1557   1.045       .  S
N1554      H1558   1.045       .  S
N1556      H1559   1.046       .  S
N1556      H1560   1.046       .  S
C1565      C1566   1.416       .  A
C1565      C1570   1.406       .  A
C1566      C1567   1.393       .  A
C1566      N1571   1.434       .  S
C1567      C1568   1.396       .  A
C1567      H1572   1.084       .  S
C1568      C1573   1.461       .  S
C1568      C1569   1.405       .  A
C1569      C1570   1.396       .  A
C1569      N1574   1.438       .  S
C1570      H1575   1.083       .  S
N1571      H1591   1.046       .  S
N1571      H1592   1.046       .  S
C1573      C1576   1.398       .  A
C1573      C1580   1.410       .  A
N1574      H1589   1.046       .  S
N1574      H1590   1.045       .  S
C1576      C1577   1.388       .  A
C1576      H1581   1.084       .  S
C1577      C1578   1.410       .  A
C1577      N1582   1.433       .  S
C1578      C1579   1.398       .  A
C1579      C1580   1.399       .  A
C1579      H1583   1.084       .  S
C1580      N1584   1.438       .  S
N1582      H1585   1.045       .  S
N1582      H1586   1.045       .  S
N1584      H1587   1.046       .  S
N1584      H1588   1.046       .  S
C1593      C1594   1.414       .  A
C1593      C1598   1.407       .  A
C1594      C1595   1.406       .  A
C1594      N1599   1.433       .  S
C1595      C1596   1.404       .  A
C1595      H1600   1.084       .  S
C1596      C1601   1.511       .  S
C1596      C1597   1.420       .  A
C1597      C1598   1.423       .  A
C1597      N1602   1.437       .  S
C1598      H1603   1.083       .  S
N1599      H1619   1.046       .  S
N1599      H1620   1.046       .  S
C1601      C1604   1.406       .  A
C1601      C1608   1.412       .  A
N1602      H1617   1.046       .  S
N1602      H1618   1.046       .  S
C1604      C1605   1.417       .  A
C1604      H1609   1.084       .  S
C1605      C1606   1.425       .  A
C1605      N1610   1.429       .  S
C1606      C1607   1.420       .  A
C1606      C2733   1.591   1_455  S
C1607      C1608   1.411       .  A
C1607      H1611   1.079       .  S
C1608      N1612   1.438       .  S
N1610      H1613   1.045       .  S
N1610      H1614   1.045       .  S
N1612      H1615   1.045       .  S
N1612      H1616   1.046       .  S
C1621      C1622   1.413       .  A
C1621      C1626   1.408       .  A
C1622      C1623   1.423       .  A
C1622      N1627   1.436       .  S
C1623      C1624   1.413       .  A
C1623      H1628   1.083       .  S
C1624      C1629   1.510       .  S
C1624      C1625   1.411       .  A
C1625      C1626   1.405       .  A
C1625      N1630   1.433       .  S
C1626      H1631   1.085       .  S
N1627      H1647   1.045       .  S
N1627      H1648   1.046       .  S
C1629      C1632   1.400       .  A
C1629      C1636   1.412       .  A
N1630      H1645   1.045       .  S
N1630      H1646   1.046       .  S
C1632      C1633   1.408       .  A
C1632      H1637   1.084       .  S
C1633      C1634   1.433       .  A
C1633      N1638   1.432       .  S
C1634      C1635   1.420       .  A
C1635      C1636   1.420       .  A
C1635      H1639   1.083       .  S
C1636      N1640   1.437       .  S
N1638      H1641   1.046       .  S
N1638      H1642   1.046       .  S
N1640      H1643   1.046       .  S
N1640      H1644   1.046       .  S
C1649      C1650   1.420       .  A
C1649      C1654   1.408       .  A
C1650      C1651   1.408       .  A
C1650      N1655   1.439       .  S
C1651      C1652   1.405       .  A
C1651      H1656   1.081       .  S
C1652      C1657   1.530       .  S
C1652      C1653   1.428       .  A
C1653      C1654   1.429       .  A
C1653      N1658   1.437       .  S
C1654      H1659   1.083       .  S
N1655      H1675   1.046       .  S
N1655      H1676   1.045       .  S
C1657      C1660   1.406       .  A
C1657      C1664   1.424       .  A
N1658      H1673   1.045       .  S
N1658      H1674   1.046       .  S
C1660      C1661   1.416       .  A
C1660      H1665   1.083       .  S
C1661      C1662   1.433       .  A
C1661      N1666   1.432       .  S
C1662      C1663   1.415       .  A
C1663      C1664   1.418       .  A
C1663      H1667   1.083       .  S
C1664      N1668   1.437       .  S
N1666      H1669   1.045       .  S
N1666      H1670   1.046       .  S
N1668      H1671   1.046       .  S
N1668      H1672   1.045       .  S
C1677      C1678   1.418       .  A
C1677      C1682   1.421       .  A
C1678      C1679   1.428       .  A
C1678      N1683   1.436       .  S
C1679      C1680   1.414       .  A
C1679      H1684   1.083       .  S
C1680      C1685   1.512       .  S
C1680      C1681   1.406       .  A
C1681      C1682   1.407       .  A
C1681      N1686   1.439       .  S
C1682      H1687   1.082       .  S
N1683      H1703   1.046       .  S
N1683      H1704   1.046       .  S
C1685      C1688   1.405       .  A
C1685      C1692   1.409       .  A
N1686      H1701   1.046       .  S
N1686      H1702   1.046       .  S
C1688      C1689   1.416       .  A
C1688      H1693   1.084       .  S
C1689      C1690   1.427       .  A
C1689      N1694   1.431       .  S
C1690      C1691   1.423       .  A
C1691      C1692   1.418       .  A
C1691      H1695   1.077       .  S
C1692      N1696   1.438       .  S
N1694      H1697   1.045       .  S
N1694      H1698   1.046       .  S
N1696      H1699   1.046       .  S
N1696      H1700   1.045       .  S
O1705     Zr1741   2.528       .  S
O1705      C1716   1.310       .  A
O1706     Zr1740   2.521       .  S
O1706      C1717   1.308       .  A
O1707     Zr1713   2.395       .  S
O1707      C1718   1.282       .  A
O1708     Zr1713   2.431       .  S
O1708      C1719   1.289       .  A
O1709     Zr1743   2.437       .  S
O1709      C1719   1.290       .  A
O1710     Zr1742   2.445       .  S
O1710      C1718   1.293       .  A
O1711     Zr1713   2.407       .  S
O1711      C1717   1.286       .  A
O1712     Zr1713   2.385       .  S
O1712      C1716   1.283       .  A
Zr1713     O1714   2.323       .  S
Zr1713     O1715   2.335       .  S
Zr1713     O1723   2.329       .  S
Zr1713     O1721   2.337       .  S
O1714     Zr1740   2.366       .  S
O1714     Zr1743   2.332       .  S
O1715     Zr1741   2.369       .  S
O1715     Zr1742   2.333       .  S
C1716      C2529   1.507       .  S
C1717      C2277   1.501       .  S
C1718      C2333   1.487       .  S
C1719      C2374   1.491       .  S
H1720      O1721   0.964       .  S
O1721     Zr1740   2.372       .  S
O1721     Zr1742   2.344       .  S
H1722      O1723   0.962       .  S
O1723     Zr1741   2.373       .  S
O1723     Zr1743   2.322       .  S
O1724     Zr1740   2.519       .  S
O1724      C1747   1.308       .  A
O1725     Zr1741   2.547       .  S
O1725      C1748   1.313       .  A
O1726     Zr1742   2.425       .  S
O1726      C1749   1.290       .  A
O1727     Zr1743   2.390       .  S
O1727      C1750   1.283       .  A
O1728     Zr1743   2.390       .  S
O1728      C1751   1.283       .  A
O1729     Zr1742   2.402       .  S
O1729      C1752   1.287       .  A
O1730     Zr1744   2.415       .  S
O1730      C1753   1.286       .  A
O1731     Zr1744   2.420       .  S
O1731      C1754   1.287       .  A
O1732     Zr1742   2.435       .  S
O1732      C1753   1.291       .  A
O1733     Zr1743   2.423       .  S
O1733      C1754   1.288       .  A
O1734     Zr1740   2.519       .  S
O1734      C1749   1.308       .  A
O1735     Zr1741   2.538       .  S
O1735      C1752   1.312       .  A
O1736     Zr1741   2.535       .  S
O1736      C1751   1.311       .  A
O1737     Zr1740   2.531       .  S
O1737      C1750   1.310       .  A
O1738     Zr1744   2.407       .  S
O1738      C1747   1.286       .  A
O1739     Zr1744   2.406       .  S
O1739      C1748   1.286       .  A
Zr1740     O1746   2.365       .  S
Zr1740     O1758   2.363       .  S
Zr1741     O1745   2.365       .  S
Zr1741     O1756   2.369       .  S
Zr1742     O1746   2.333       .  S
Zr1742     O1756   2.350       .  S
Zr1743     O1745   2.342       .  S
Zr1743     O1758   2.334       .  S
Zr1744     O1745   2.331       .  S
Zr1744     O1746   2.335       .  S
Zr1744     O1758   2.332       .  S
Zr1744     O1756   2.329       .  S
C1747      C2305   1.492       .  S
C1748      C2501   1.524       .  S
C1749      C2221   1.502       .  S
C1750      C2262   1.505       .  S
C1751      C2445   1.493       .  S
C1752      C2473   1.507       .  S
C1753      C2417   1.487       .  S
C1754      C2402   1.479       .  S
H1755      O1756   0.972       .  S
H1757      O1758   0.966       .  S
N1759      H1791   1.036       .  S
N1759      C1763   1.349       .  A
N1760      C2619   1.349       .  A
N1760      C1768   1.350       .  A
N1761      H1792   1.039       .  S
N1761      C1765   1.353       .  A
N1762      C2621   1.347       .  A
N1762      C1770   1.349       .  A
C1763      C1771   1.386       .  A
C1763      C1779   1.410       .  A
C1764      C1780   1.415       .  A
C1764      C1772   1.388       .  A
C1765      C1773   1.387       .  A
C1765      C1782   1.413       .  A
C1766      C1781   1.410       .  A
C1766      C1774   1.388       .  A
C1767      N2612   1.350   1_545  A
C1767      C1779   1.412       .  A
C1767      C1775   1.387       .  A
C1768      C1782   1.410       .  A
C1768      C1776   1.386       .  A
C1769      N2614   1.349   1_545  A
C1769      C1777   1.387       .  A
C1769      C1780   1.408       .  A
C1770      C1778   1.385       .  A
C1770      C1781   1.407       .  A
C1771      H1783   1.082       .  S
C1772      H1784   1.082       .  S
C1773      H1785   1.082       .  S
C1774      H1786   1.082       .  S
C1775      C2628   1.371   1_545  A
C1775      H1787   1.082       .  S
C1776      C2627   1.373       .  A
C1776      H1788   1.082       .  S
C1777      C2630   1.371   1_545  A
C1777      H1789   1.082       .  S
C1778      C2629   1.371       .  A
C1778      H1790   1.082       .  S
C1779      C2361   1.480       .  S
C1780      C2346   1.482       .  S
C1781      C2430   1.478       .  S
C1782      C2389   1.482       .  S
O1793     Zr2681   2.522       .  S
O1793      C1804   1.308       .  A
O1794     Zr1828   2.528       .  S
O1794      C1805   1.310       .  A
O1795     Zr1801   2.426       .  S
O1795      C1806   1.288       .  A
O1796      C1807   1.287   1_556  A
O1797     Zr2683   2.433   1_554  S
O1797      C1807   1.289       .  A
O1798     Zr2682   2.439       .  S
O1798      C1806   1.291       .  A
O1799     Zr1801   2.405   1_554  S
O1799      C1805   1.287       .  A
O1800     Zr1801   2.429       .  S
O1800      C1804   1.291       .  A
Zr1801     O1803   2.335       .  S
Zr1801     O1809   2.343   1_556  S
O1802     Zr2683   2.336   1_554  S
O1803     Zr2681   2.372       .  S
O1803     Zr2682   2.338       .  S
C1804      C2206   1.506       .  S
C1805      C1941   1.520       .  S
C1806      C1997   1.478       .  S
C1807      C2025   1.485       .  S
H1808      O1809   0.957       .  S
O1809     Zr1828   2.364       .  S
O1809     Zr2682   2.335   1_554  S
H1810      O1811   0.977       .  S
O1811     Zr2683   2.347       .  S
O1812     Zr2680   2.552   1_545  S
O1812      C1835   1.314       .  A
O1813     Zr1829   2.542       .  S
O1813      C1836   1.312       .  A
O1814     Zr2682   2.404   1_554  S
O1814      C1837   1.286       .  A
O1815     Zr2683   2.425   1_554  S
O1815      C1838   1.290       .  A
O1816     Zr1831   2.420       .  S
O1816      C1839   1.290   1_565  A
O1817     Zr1830   2.419       .  S
O1817      C1840   1.288       .  A
O1818     Zr1832   2.405   1_554  S
O1818      C1841   1.284       .  A
O1819      C1842   1.285       .  A
O1820     Zr1830   2.423   1_545  S
O1820      C1841   1.288   1_556  A
O1821     Zr1831   2.442   1_544  S
O1821      C1842   1.292       .  A
O1822     Zr1828   2.535       .  S
O1822      C1837   1.311       .  A
O1823     Zr1829   2.525   1_565  S
O1823      C1840   1.309       .  A
O1824      C1839   1.310       .  A
O1825      C1838   1.306       .  A
O1826     Zr1832   2.397   1_554  S
O1826      C1835   1.285       .  A
O1827     Zr1832   2.425       .  S
O1827      C1836   1.289       .  A
Zr1828     O2664   2.523       .  S
Zr1828     O2686   2.362       .  S
Zr1829     O2645   2.524   1_545  S
Zr1829     O2655   2.375   1_545  S
Zr1829     O1844   2.368       .  S
Zr1830     O2650   2.440       .  S
Zr1830     O2666   2.400   1_556  S
Zr1830     O2655   2.333       .  S
Zr1830     O2661   2.337   1_556  S
Zr1830     O1834   2.338   1_566  S
Zr1830     O1844   2.346   1_565  S
Zr1831     O2649   2.448       .  S
Zr1831     O2667   2.429   1_556  S
Zr1831     O2654   2.336   1_556  S
Zr1831     O2663   2.351       .  S
Zr1831     O1833   2.346   1_565  S
Zr1831     O1846   2.340   1_566  S
Zr1832     O1834   2.331   1_556  S
Zr1832     O1844   2.334       .  S
O1834     Zr2680   2.371   1_545  S
C1835      C1982   1.528       .  S
C1836      C2165   1.518       .  S
C1837      C1898   1.503       .  S
C1838      C1926   1.496       .  S
C1839      C2122   1.502       .  S
C1840      C2137   1.498       .  S
C1841      C2094   1.473       .  S
C1842      C2053   1.476       .  S
H1843      O1844   0.974       .  S
H1845      O1846   0.975       .  S
N1847      H1879   1.041       .  S
N1847      C1852   1.354       .  A
N1847      C1851   1.350       .  A
N1848      C1855   1.348       .  A
N1848      C1856   1.349       .  A
N1849      H1880   1.040       .  S
N1849      C1854   1.351       .  A
N1849      C1853   1.353       .  A
N1850      C1857   1.348       .  A
N1850      C1858   1.347       .  A
C1851      C1859   1.389       .  A
C1851      C1867   1.413       .  A
C1852      C1868   1.409       .  A
C1852      C1860   1.385       .  A
C1853      C1861   1.387       .  A
C1853      C1870   1.413       .  A
C1854      C1869   1.412       .  A
C1854      C1862   1.387       .  A
C1855      C1867   1.410       .  A
C1855      C1863   1.387       .  A
C1856      C1870   1.409       .  A
C1856      C1864   1.385       .  A
C1857      C1865   1.385       .  A
C1857      C1868   1.406       .  A
C1858      C1866   1.387       .  A
C1858      C1869   1.406       .  A
C1859      C1860   1.373       .  A
C1859      H1871   1.082       .  S
C1860      H1872   1.082       .  S
C1861      C1862   1.373       .  A
C1861      H1873   1.082       .  S
C1862      H1874   1.082       .  S
C1863      C1864   1.375       .  A
C1863      H1875   1.082       .  S
C1864      H1876   1.082       .  S
C1865      C1866   1.373       .  A
C1865      H1877   1.083       .  S
C1866      H1878   1.082       .  S
C1867      C2038   1.479       .  S
C1868      C2010   1.484       .  S
C1869      C2081   1.476       .  S
C1870      C2066   1.484       .  S
C1881      C1954   1.585   1_655  S
C1881      C1969   1.599       .  S
C1881      C2486   1.592       .  S
C1882      C1885   1.603       .  S
C1882      C1913   1.585       .  S
C1882      C2514   1.599       .  S
C1882      C3394   1.594       .  S
C1883      C2178   1.590       .  S
C1883      C2193   1.593       .  S
C1883      C2234   1.589       .  S
C1884      C2109   1.601   1_545  S
C1884      C2150   1.592   1_545  S
C1884      C2290   1.599       .  S
C1884      C3170   1.579   1_545  S
C1885      C2738   1.435       .  A
C1885      C1890   1.419       .  A
C1886      C2737   1.436   1_545  A
C1886      C1887   1.414       .  A
C1886      N1891   1.433       .  S
C1887      C2740   1.404   1_545  A
C1887      H1892   1.084       .  S
C1888      C1893   1.521       .  S
C1888      C2739   1.411       .  A
C1888      C1889   1.414       .  A
C1889      C1890   1.410       .  A
C1889      N1894   1.439       .  S
C1890      H1895   1.078       .  S
N1891      H1911   1.041       .  S
N1891      H1912   1.044       .  S
C1893      C1896   1.406       .  A
C1893      C2752   1.421       .  A
N1894      H1909   1.046       .  S
N1894      H1910   1.046       .  S
C1896      C1897   1.410       .  A
C1896      H1901   1.083       .  S
C1897      C1898   1.416       .  A
C1897      N1902   1.439       .  S
C1898      C2751   1.409       .  A
C1899      C2750   1.407   1_545  A
C1899      C1900   1.422       .  A
C1899      H1903   1.083       .  S
C1900      C2745   1.416   1_545  A
C1900      N1904   1.436       .  S
N1902      H1905   1.046       .  S
N1902      H1906   1.045       .  S
N1904      H1907   1.046       .  S
N1904      H1908   1.046       .  S
C1913      C1914   1.425       .  A
C1913      C2770   1.423       .  A
C1914      C1915   1.418       .  A
C1914      N1919   1.431       .  S
C1915      C1916   1.405       .  A
C1915      H1920   1.084       .  S
C1916      C1921   1.506       .  S
C1916      C2769   1.406       .  A
C1917      C2768   1.410       .  A
C1917      C1918   1.411       .  A
C1917      N1922   1.432       .  S
C1918      C2765   1.421       .  A
C1918      H1923   1.077       .  S
N1919      H1939   1.045       .  S
N1919      H1940   1.046       .  S
C1921      C2776   1.402       .  A
C1921      C1928   1.418       .  A
N1922      H1937   1.046       .  S
N1922      H2790   1.046       .  S
C1924      C2773   1.408       .  A
C1924      C1925   1.412       .  A
C1924      H1929   1.083       .  S
C1925      C2778   1.413       .  A
C1925      N1930   1.433       .  S
C1926      C2777   1.413       .  A
C1926      C1927   1.406       .  A
C1927      C1928   1.422       .  A
C1927      H1931   1.083       .  S
C1928      N1932   1.436       .  S
N1930      H1933   1.045       .  S
N1930      H1934   1.046       .  S
N1932      H1935   1.046       .  S
N1932      H1936   1.046       .  S
H1938      N2774   1.046       .  S
C1941      C1942   1.418       .  A
C1942      C1943   1.426       .  A
C1942      N1947   1.436       .  S
C1943      H1948   1.083       .  S
C1944      C1945   1.405       .  A
C1945      C1946   1.407       .  A
C1945      N1950   1.439       .  S
C1946      H1951   1.082       .  S
N1947      H1967   1.046       .  S
N1947      H1968   1.046       .  S
C1949      C1956   1.407       .  A
N1950      H1965   1.046       .  S
N1950      H1966   1.046       .  S
C1952      C1953   1.417       .  A
C1952      H1957   1.084       .  S
C1953      C1954   1.426   1_655  A
C1953      N1958   1.432       .  S
C1955      C1956   1.414       .  A
C1955      H1959   1.076       .  S
C1956      N1960   1.438       .  S
N1958      H1961   1.045       .  S
N1958      H1962   1.046       .  S
N1960      H1963   1.046       .  S
N1960      H1964   1.046       .  S
C1969      C1974   1.421       .  A
C1970      C1971   1.415       .  A
C1970      N1975   1.432       .  S
C1971      H1976   1.083       .  S
C1972      C1977   1.530       .  S
C1972      C1973   1.416   1_455  A
C1973      C1974   1.423       .  A
C1973      N1978   1.437       .  S
C1974      H1979   1.079       .  S
N1975      H1995   1.045       .  S
N1975      H1996   1.045       .  S
C1977      C1980   1.419   1_455  A
N1978      H1993   1.045       .  S
N1978      H1994   1.046       .  S
C1980      C1981   1.428       .  A
C1980      H1985   1.083       .  S
C1981      N1986   1.436       .  S
C1982      C1983   1.419       .  A
C1983      C1984   1.408       .  A
C1983      H1987   1.083       .  S
C1984      N1988   1.439       .  S
N1986      H1989   1.045       .  S
N1986      H1990   1.046       .  S
N1988      H1991   1.046       .  S
N1988      H1992   1.046       .  S
C1997      C1998   1.411       .  A
C1997      C2002   1.406   1_556  A
C1998      C1999   1.405       .  A
C1998      N2003   1.436       .  S
C1999      C2000   1.400   1_556  A
C1999      H2004   1.084       .  S
C2000      C2005   1.476       .  S
C2000      C2001   1.408       .  A
C2001      C2002   1.404       .  A
C2001      N2006   1.438       .  S
C2002      H2007   1.084       .  S
N2003      H2023   1.045       .  S
N2003      H2024   1.045       .  S
C2005      C2008   1.402       .  A
C2005      C2012   1.408       .  A
N2006      H2021   1.046       .  S
N2006      H2022   1.046       .  S
C2008      C2009   1.405       .  A
C2008      H2013   1.084       .  S
C2009      C2010   1.408       .  A
C2009      N2014   1.437       .  S
C2010      C2011   1.403       .  A
C2011      C2012   1.404       .  A
C2011      H2015   1.084   1_554  S
C2012      N2016   1.438   1_554  S
N2014      H2017   1.046       .  S
N2014      H2018   1.045       .  S
N2016      H2019   1.046       .  S
N2016      H2020   1.046       .  S
C2025      C2026   1.416       .  A
C2025      C2030   1.410       .  A
C2026      C2027   1.405       .  A
C2026      N2031   1.438       .  S
C2027      C2028   1.401       .  A
C2027      H2032   1.084       .  S
C2028      C2033   1.475       .  S
C2028      C2029   1.406       .  A
C2029      C2030   1.400       .  A
C2029      N2034   1.439       .  S
C2030      H2035   1.083       .  S
N2031      H2051   1.046   1_554  S
N2031      H2052   1.046       .  S
C2033      C2036   1.400       .  A
C2033      C2040   1.411       .  A
N2034      H2049   1.046       .  S
N2034      H2050   1.046       .  S
C2036      C2037   1.398       .  A
C2036      H2041   1.084       .  S
C2037      C2038   1.408       .  A
C2037      N2042   1.438       .  S
C2038      C2039   1.402       .  A
C2039      C2040   1.405       .  A
C2039      H2043   1.084       .  S
C2040      N2044   1.438       .  S
N2042      H2045   1.045   1_554  S
N2042      H2046   1.046       .  S
N2044      H2047   1.046       .  S
N2044      H2048   1.046       .  S
C2053      C2054   1.420       .  A
C2053      C2058   1.403   1_554  A
C2054      C2055   1.395       .  A
C2054      N2059   1.433       .  S
C2055      C2056   1.397       .  A
C2055      H2060   1.084       .  S
C2056      C2061   1.473       .  S
C2056      C2057   1.409       .  A
C2057      C2058   1.405   1_554  A
C2057      N2062   1.437   1_554  S
C2058      H2063   1.084       .  S
N2059      H2079   1.045       .  S
N2059      H2080   1.045       .  S
C2061      C2064   1.397       .  A
C2061      C2068   1.409       .  A
N2062      H2077   1.046       .  S
N2062      H2078   1.045   1_556  S
C2064      C2065   1.397       .  A
C2064      H2069   1.084   1_554  S
C2065      C2066   1.419       .  A
C2065      N2070   1.439       .  S
C2066      C2067   1.404       .  A
C2067      C2068   1.407       .  A
C2067      H2071   1.084       .  S
C2068      N2072   1.438       .  S
N2070      H2073   1.046   1_554  S
N2070      H2074   1.042       .  S
N2072      H2075   1.046       .  S
N2072      H2076   1.046       .  S
C2081      C2082   1.408       .  A
C2081      C2086   1.401       .  A
C2082      C2083   1.396       .  A
C2082      N2087   1.432       .  S
C2083      C2084   1.403       .  A
C2083      H2088   1.084       .  S
C2084      C2089   1.473       .  S
C2084      C2085   1.410       .  A
C2085      C2086   1.400       .  A
C2085      N2090   1.438   1_554  S
C2086      H2091   1.084       .  S
N2087      H2107   1.045       .  S
N2087      H2108   1.045       .  S
C2089      C2092   1.399       .  A
C2089      C2096   1.409       .  A
N2090      H2105   1.046       .  S
N2090      H2106   1.046       .  S
C2092      C2093   1.397       .  A
C2092      H2097   1.084       .  S
C2093      C2094   1.412       .  A
C2093      N2098   1.433   1_554  S
C2094      C2095   1.405       .  A
C2095      C2096   1.402       .  A
C2095      H2099   1.084       .  S
C2096      N2100   1.438       .  S
N2098      H2101   1.045       .  S
N2098      H2102   1.046       .  S
N2100      H2103   1.046       .  S
N2100      H2104   1.045       .  S
C2109      C2962   1.447       .  A
C2109      C2114   1.422   1_565  A
C2110      C2961   1.446       .  A
C2110      C2111   1.412       .  A
C2110      N2115   1.432       .  S
C2111      C2964   1.394       .  A
C2111      H2116   1.084       .  S
C2112      C2117   1.511       .  S
C2112      C2963   1.390   1_545  A
C2112      C2113   1.414       .  A
C2113      C2114   1.430       .  A
C2113      N2118   1.436       .  S
C2114      H2119   1.083       .  S
N2115      H2135   1.046       .  S
N2115      H2136   1.045       .  S
C2117      C2120   1.413       .  A
C2117      C2976   1.411   1_545  A
N2118      H2133   1.046       .  S
N2118      H2134   1.046       .  S
C2120      C2121   1.426       .  A
C2120      H2125   1.083       .  S
C2121      C2122   1.415       .  A
C2121      N2126   1.437       .  S
C2122      C2975   1.408   1_545  A
C2123      C2974   1.413       .  A
C2123      C2124   1.417       .  A
C2123      H2127   1.084       .  S
C2124      C2969   1.411       .  A
C2124      N2128   1.438       .  S
N2126      H2129   1.046       .  S
N2126      H2130   1.046       .  S
N2128      H2131   1.046       .  S
N2128      H2132   1.045       .  S
C2137      C2990   1.414       .  A
C2137      C2142   1.406   1_565  A
C2138      C2989   1.411       .  A
C2138      C2139   1.411       .  A
C2138      N2143   1.435       .  S
C2139      C2992   1.402       .  A
C2139      H2144   1.084       .  S
C2140      C2145   1.506       .  S
C2140      C2991   1.405       .  A
C2140      C2141   1.414   1_565  A
C2141      C2142   1.418       .  A
C2141      N2146   1.437       .  S
C2142      H2147   1.084       .  S
N2143      H2163   1.045       .  S
N2143      H2164   1.046       .  S
C2145      C3000   1.392       .  A
C2145      C2152   1.416       .  A
N2146      H2161   1.045       .  S
N2146      H2162   1.045       .  S
C2148      C2997   1.390       .  A
C2148      C2149   1.400       .  A
C2148      H2153   1.084       .  S
C2149      C3002   1.435       .  A
C2149      N2154   1.431       .  S
C2150      C3001   1.437       .  A
C2150      C2151   1.417       .  A
C2151      C2152   1.427       .  A
C2151      H2155   1.079       .  S
C2152      N2156   1.436       .  S
N2154      H2157   1.046       .  S
N2154      H2158   1.046       .  S
N2156      H2159   1.045       .  S
N2156      H2160   1.045   1_565  S
C2165      C2170   1.409       .  A
C2166      C2167   1.411       .  A
C2166      N2171   1.434       .  S
C2167      C2168   1.405       .  A
C2167      H2172   1.084       .  S
C2168      C2173   1.517       .  S
C2169      C2170   1.429       .  A
C2169      N2174   1.436       .  S
C2170      H2175   1.083       .  S
N2171      H2191   1.046       .  S
N2171      H2192   1.045       .  S
C2173      C2180   1.412       .  A
N2174      H2189   1.045       .  S
N2174      H2190   1.046       .  S
C2176      C2177   1.422       .  A
C2176      H2181   1.083       .  S
C2177      N2182   1.432       .  S
C2178      C2179   1.421       .  A
C2179      C2180   1.416       .  A
C2179      H2183   1.078       .  S
C2180      N2184   1.438       .  S
N2182      H2185   1.045       .  S
N2182      H2186   1.046       .  S
N2184      H2187   1.046       .  S
N2184      H2188   1.046       .  S
C2193      C2194   1.425       .  A
C2194      C2195   1.422       .  A
C2194      N2199   1.431       .  S
C2195      H2200   1.083       .  S
C2196      C2201   1.519       .  S
C2196      C2197   1.414       .  A
C2197      C2198   1.415       .  A
C2197      N2202   1.438       .  S
C2198      H2203   1.079       .  S
N2199      H2219   1.045       .  S
N2199      H2220   1.045       .  S
C2201      C2204   1.407       .  A
N2202      H2217   1.046       .  S
N2202      H2218   1.046       .  S
C2204      C2205   1.413       .  A
C2204      H2209   1.083       .  S
C2205      C2206   1.416       .  A
C2205      N2210   1.438       .  S
C2207      C2208   1.426       .  A
C2207      H2211   1.083       .  S
C2208      N2212   1.437       .  S
N2210      H2213   1.046       .  S
N2210      H2214   1.044       .  S
N2212      H2215   1.046       .  S
N2212      H2216   1.045       .  S
C2221      C2222   1.415       .  A
C2221      C2226   1.407       .  A
C2222      C2223   1.412       .  A
C2222      N2227   1.438       .  S
C2223      C2224   1.408       .  A
C2223      H2228   1.083       .  S
C2224      C2229   1.519       .  S
C2224      C2225   1.419       .  A
C2225      C2226   1.421       .  A
C2225      N2230   1.431       .  S
C2226      H2231   1.083       .  S
N2227      H2247   1.046       .  S
N2227      H2248   1.046       .  S
C2229      C2232   1.404       .  A
C2229      C2236   1.415       .  A
N2230      H2245   1.045       .  S
N2230      H2246   1.046       .  S
C2232      C2233   1.411       .  A
C2232      H2237   1.083       .  S
C2233      C2234   1.430       .  A
C2233      N2238   1.432       .  S
C2234      C2235   1.418       .  A
C2235      C2236   1.418       .  A
C2235      H2239   1.083       .  S
C2236      N2240   1.431       .  S
N2238      H2241   1.045       .  S
N2238      H2242   1.045       .  S
N2240      H2243   1.045       .  S
N2240      H2244   1.046       .  S
C2249      C2250   1.428       .  A
C2249      C2254   1.415       .  A
C2250      C2251   1.417       .  A
C2250      N2255   1.432       .  S
C2251      C2252   1.406       .  A
C2251      H2256   1.083       .  S
C2252      C2257   1.515       .  S
C2252      C2253   1.415       .  A
C2253      C2254   1.411       .  A
C2253      N2258   1.433       .  S
C2254      H2259   1.082       .  S
N2255      H2275   1.046       .  S
N2255      H2276   1.046       .  S
C2257      C2260   1.401       .  A
C2257      C2264   1.423       .  A
N2258      H2273   1.045       .  S
N2258      H2274   1.046       .  S
C2260      C2261   1.404       .  A
C2260      H2265   1.083       .  S
C2261      C2262   1.423       .  A
C2261      N2266   1.439       .  S
C2262      C2263   1.406       .  A
C2263      C2264   1.424       .  A
C2263      H2267   1.083       .  S
C2264      N2268   1.436       .  S
N2266      H2269   1.046       .  S
N2266      H2270   1.045       .  S
N2268      H2271   1.046       .  S
N2268      H2272   1.045       .  S
C2277      C2278   1.418       .  A
C2277      C2282   1.407       .  A
C2278      C2279   1.408       .  A
C2278      N2283   1.434       .  S
C2279      C2280   1.402       .  A
C2279      H2284   1.084       .  S
C2280      C2285   1.504       .  S
C2280      C2281   1.416       .  A
C2281      C2282   1.421       .  A
C2281      N2286   1.436       .  S
C2282      H2287   1.083       .  S
N2283      H2303   1.046       .  S
N2283      H2304   1.046       .  S
C2285      C2288   1.403       .  A
C2285      C2292   1.402       .  A
N2286      H2301   1.046       .  S
N2286      H2302   1.046       .  S
C2288      C2289   1.420       .  A
C2288      H2293   1.084       .  S
C2289      C2290   1.430       .  A
C2289      N2294   1.429       .  S
C2290      C2291   1.430       .  A
C2291      C2292   1.409       .  A
C2291      H2295   1.077       .  S
C2292      N2296   1.439       .  S
N2294      H2297   1.046       .  S
N2294      H2298   1.045       .  S
N2296      H2299   1.046       .  S
N2296      H2300   1.045       .  S
C2305      C2306   1.417       .  A
C2305      C2310   1.405       .  A
C2306      C2307   1.414       .  A
C2306      N2311   1.439       .  S
C2307      C2308   1.404       .  A
C2307      H2312   1.084       .  S
C2308      C2313   1.501       .  S
C2308      C2309   1.415       .  A
C2309      C2310   1.416       .  A
C2309      N2314   1.438       .  S
C2310      H2315   1.084       .  S
N2311      H2331   1.043       .  S
N2311      H2332   1.046       .  S
C2313      C2316   1.406       .  A
C2313      C2320   1.402       .  A
N2314      H2329   1.045       .  S
N2314      H2330   1.044       .  S
C2316      C2317   1.420       .  A
C2316      H2321   1.084       .  S
C2317      C2318   1.429       .  A
C2317      N2322   1.430       .  S
C2318      C2319   1.423       .  A
C2318      C2736   1.579       .  S
C2319      C2320   1.404       .  A
C2319      H2323   1.084       .  S
C2320      N2324   1.432       .  S
N2322      H2325   1.046       .  S
N2322      H2326   1.045       .  S
N2324      H2327   1.045       .  S
N2324      H2328   1.046       .  S
C2333      C2334   1.422       .  A
C2333      C2338   1.407       .  A
C2334      C2335   1.396       .  A
C2334      N2339   1.434       .  S
C2335      C2336   1.396       .  A
C2335      H2340   1.084       .  S
C2336      C2341   1.475       .  S
C2336      C2337   1.408       .  A
C2337      C2338   1.405       .  A
C2337      N2342   1.438       .  S
C2338      H2343   1.083       .  S
N2339      H2359   1.046       .  S
N2339      H2360   1.046       .  S
C2341      C2344   1.402       .  A
C2341      C2348   1.409       .  A
N2342      H2357   1.046       .  S
N2342      H2358   1.046       .  S
C2344      C2345   1.399       .  A
C2344      H2349   1.084       .  S
C2345      C2346   1.414       .  A
C2345      N2350   1.438       .  S
C2346      C2347   1.403       .  A
C2347      C2348   1.400       .  A
C2347      H2351   1.084       .  S
C2348      N2352   1.438       .  S
N2350      H2353   1.045       .  S
N2350      H2354   1.044       .  S
N2352      H2355   1.046       .  S
N2352      H2356   1.045       .  S
C2361      C2362   1.412       .  A
C2361      C2366   1.403       .  A
C2362      C2363   1.399       .  A
C2362      N2367   1.438       .  S
C2363      C2364   1.405       .  A
C2363      H2368   1.084       .  S
C2364      C2369   1.484       .  S
C2364      C2365   1.411       .  A
C2365      C2366   1.404       .  A
C2365      N2370   1.438       .  S
C2366      H2371   1.084       .  S
N2367      H2387   1.044       .  S
N2367      H2388   1.045       .  S
C2369      C2372   1.400       .  A
C2369      C2376   1.410       .  A
N2370      H2385   1.046       .  S
N2370      H2386   1.046       .  S
C2372      C2373   1.402       .  A
C2372      H2377   1.084       .  S
C2373      C2374   1.415       .  A
C2373      N2378   1.433       .  S
C2374      C2375   1.409       .  A
C2375      C2376   1.407       .  A
C2375      H2379   1.083       .  S
C2376      N2380   1.438       .  S
N2378      H2381   1.045       .  S
N2378      H2382   1.046       .  S
N2380      H2383   1.045       .  S
N2380      H2384   1.046       .  S
C2389      C2390   1.407       .  A
C2389      C2394   1.401       .  A
C2390      C2391   1.399       .  A
C2390      N2395   1.432       .  S
C2391      C2392   1.398       .  A
C2391      H2396   1.084       .  S
C2392      C2397   1.470       .  S
C2392      C2393   1.410       .  A
C2393      C2394   1.406       .  A
C2393      N2398   1.438       .  S
C2394      H2399   1.083       .  S
N2395      H2415   1.045       .  S
N2395      H2416   1.045       .  S
C2397      C2400   1.396       .  A
C2397      C2404   1.407       .  A
N2398      H2413   1.045       .  S
N2398      H2414   1.046       .  S
C2400      C2401   1.396       .  A
C2400      H2405   1.084       .  S
C2401      C2402   1.415       .  A
C2401      N2406   1.433       .  S
C2402      C2403   1.408       .  A
C2403      C2404   1.405       .  A
C2403      H2407   1.084       .  S
C2404      N2408   1.437       .  S
N2406      H2409   1.045       .  S
N2406      H2410   1.045       .  S
N2408      H2411   1.046       .  S
N2408      H2412   1.046       .  S
C2417      C2418   1.418       .  A
C2417      C2422   1.409       .  A
C2418      C2419   1.396       .  A
C2418      N2423   1.434       .  S
C2419      C2420   1.397       .  A
C2419      H2424   1.084       .  S
C2420      C2425   1.476       .  S
C2420      C2421   1.409       .  A
C2421      C2422   1.404       .  A
C2421      N2426   1.438       .  S
C2422      H2427   1.083       .  S
N2423      H2443   1.046       .  S
N2423      H2444   1.046       .  S
C2425      C2428   1.404       .  A
C2425      C2432   1.411       .  A
N2426      H2441   1.046       .  S
N2426      H2442   1.046       .  S
C2428      C2429   1.396       .  A
C2428      H2433   1.084       .  S
C2429      C2430   1.410       .  A
C2429      N2434   1.433       .  S
C2430      C2431   1.400       .  A
C2431      C2432   1.400       .  A
C2431      H2435   1.084       .  S
C2432      N2436   1.438       .  S
N2434      H2437   1.045       .  S
N2434      H2438   1.046       .  S
N2436      H2439   1.045       .  S
N2436      H2440   1.045       .  S
C2445      C2446   1.414       .  A
C2445      C2450   1.405       .  A
C2446      C2447   1.408       .  A
C2446      N2451   1.433       .  S
C2447      C2448   1.406       .  A
C2447      H2452   1.084       .  S
C2448      C2453   1.512       .  S
C2448      C2449   1.419       .  A
C2449      C2450   1.421       .  A
C2449      N2454   1.437       .  S
C2450      H2455   1.083       .  S
N2451      H2471   1.045       .  S
N2451      H2472   1.046       .  S
C2453      C2456   1.409       .  A
C2453      C2460   1.410       .  A
N2454      H2469   1.045       .  S
N2454      H2470   1.045       .  S
C2456      C2457   1.419       .  A
C2456      H2461   1.083       .  S
C2457      C2458   1.425       .  A
C2457      N2462   1.430       .  S
C2458      C2459   1.419       .  A
C2459      C2460   1.408       .  A
C2459      H2463   1.078       .  S
C2460      N2464   1.439       .  S
N2462      H2465   1.046       .  S
N2462      H2466   1.045       .  S
N2464      H2467   1.045       .  S
N2464      H2468   1.046       .  S
C2473      C2474   1.413       .  A
C2473      C2478   1.413       .  A
C2474      C2475   1.423       .  A
C2474      N2479   1.436       .  S
C2475      C2476   1.412       .  A
C2475      H2480   1.083       .  S
C2476      C2481   1.512       .  S
C2476      C2477   1.412       .  A
C2477      C2478   1.411       .  A
C2477      N2482   1.439       .  S
C2478      H2483   1.084       .  S
N2479      H2499   1.045       .  S
N2479      H2500   1.045       .  S
C2481      C2484   1.399       .  A
C2481      C2488   1.412       .  A
N2482      H2497   1.046       .  S
N2482      H2498   1.046       .  S
C2484      C2485   1.411       .  A
C2484      H2489   1.084       .  S
C2485      C2486   1.436       .  A
C2485      N2490   1.432       .  S
C2486      C2487   1.420       .  A
C2487      C2488   1.421       .  A
C2487      H2491   1.083       .  S
C2488      N2492   1.437       .  S
N2490      H2493   1.046       .  S
N2490      H2494   1.046       .  S
N2492      H2495   1.045       .  S
N2492      H2496   1.046       .  S
C2501      C2502   1.429       .  A
C2501      C2506   1.410       .  A
C2502      C2503   1.410       .  A
C2502      N2507   1.440       .  S
C2503      C2504   1.401       .  A
C2503      H2508   1.083       .  S
C2504      C2509   1.523       .  S
C2504      C2505   1.423       .  A
C2505      C2506   1.429       .  A
C2505      N2510   1.437       .  S
C2506      H2511   1.083       .  S
N2507      H2527   1.046       .  S
N2507      H2528   1.046       .  S
C2509      C2512   1.404       .  A
C2509      C2516   1.418       .  A
N2510      H2525   1.046       .  S
N2510      H2526   1.046       .  S
C2512      C2513   1.418       .  A
C2512      H2517   1.084       .  S
C2513      C2514   1.435       .  A
C2513      N2518   1.432       .  S
C2514      C2515   1.418       .  A
C2515      C2516   1.418       .  A
C2515      H2519   1.083       .  S
C2516      N2520   1.437       .  S
N2518      H2521   1.045       .  S
N2518      H2522   1.046       .  S
N2520      H2523   1.046       .  S
N2520      H2524   1.046       .  S
C2529      C2530   1.413       .  A
C2529      C2534   1.417       .  A
C2530      C2531   1.423       .  A
C2530      N2535   1.436       .  S
C2531      C2532   1.412       .  A
C2531      H2536   1.083       .  S
C2532      C2537   1.495       .  S
C2532      C2533   1.402       .  A
C2533      C2534   1.402       .  A
C2533      N2538   1.438       .  S
C2534      H2539   1.083       .  S
N2535      H2555   1.045       .  S
N2535      H2556   1.045       .  S
C2537      C2540   1.404       .  A
C2537      C2544   1.404       .  A
N2538      H2553   1.045       .  S
N2538      H2554   1.046       .  S
C2540      C2541   1.414       .  A
C2540      H2545   1.084       .  S
C2541      C2542   1.425       .  A
C2541      N2546   1.431       .  S
C2542      C2543   1.422       .  A
C2542      C2734   1.588   1_545  S
C2543      C2544   1.410       .  A
C2543      H2547   1.077       .  S
C2544      N2548   1.438       .  S
N2546      H2549   1.045       .  S
N2546      H2550   1.046       .  S
N2548      H2551   1.046       .  S
N2548      H2552   1.045       .  S
O2557     Zr2593   2.539       .  S
O2557      C2568   1.312       .  A
O2558     Zr2592   2.524       .  S
O2558      C2569   1.309       .  A
O2559     Zr2565   2.409       .  S
O2559      C2570   1.285       .  A
O2560     Zr2565   2.434       .  S
O2560      C2571   1.290       .  A
O2561     Zr2595   2.413       .  S
O2561      C2571   1.285       .  A
O2562     Zr2594   2.432       .  S
O2562      C2570   1.290       .  A
O2563     Zr2565   2.402       .  S
O2563      C2569   1.285       .  A
O2564     Zr2565   2.406       .  S
O2564      C2568   1.287       .  A
Zr2565     O2566   2.330       .  S
Zr2565     O2567   2.338       .  S
Zr2565     O2575   2.326       .  S
Zr2565     O2573   2.342       .  S
O2566     Zr2592   2.366       .  S
O2566     Zr2595   2.328       .  S
O2567     Zr2593   2.371       .  S
O2567     Zr2594   2.342       .  S
C2568      C3381   1.521       .  S
C2569      C3129   1.492       .  S
C2570      C3185   1.474       .  S
C2571      C3226   1.483       .  S
H2572      O2573   0.957       .  S
O2573     Zr2592   2.365       .  S
O2573     Zr2594   2.337       .  S
H2574      O2575   0.963       .  S
O2575     Zr2593   2.369       .  S
O2575     Zr2595   2.331       .  S
O2576     Zr2592   2.513       .  S
O2576      C2599   1.307       .  A
O2577     Zr2593   2.549       .  S
O2577      C2600   1.314       .  A
O2578     Zr2594   2.414       .  S
O2578      C2601   1.288       .  A
O2579     Zr2595   2.402       .  S
O2579      C2602   1.286       .  A
O2580     Zr2595   2.401       .  S
O2580      C2603   1.285       .  A
O2581     Zr2594   2.410       .  S
O2581      C2604   1.287       .  A
O2582     Zr2596   2.423       .  S
O2582      C2605   1.288       .  A
O2583     Zr2596   2.428       .  S
O2583      C2606   1.288       .  A
O2584     Zr2594   2.425       .  S
O2584      C2605   1.289       .  A
O2585     Zr2595   2.410       .  S
O2585      C2606   1.285       .  A
O2586     Zr2592   2.531       .  S
O2586      C2601   1.311       .  A
O2587     Zr2593   2.523       .  S
O2587      C2604   1.309       .  A
O2588     Zr2593   2.521       .  S
O2588      C2603   1.308       .  A
O2589     Zr2592   2.533       .  S
O2589      C2602   1.311       .  A
O2590     Zr2596   2.420       .  S
O2590      C2599   1.289       .  A
O2591     Zr2596   2.385       .  S
O2591      C2600   1.282       .  A
Zr2592     O2598   2.368       .  S
Zr2592     O2610   2.367       .  S
Zr2593     O2597   2.368       .  S
Zr2593     O2608   2.366       .  S
Zr2594     O2598   2.341       .  S
Zr2594     O2608   2.334       .  S
Zr2595     O2597   2.330       .  S
Zr2595     O2610   2.335       .  S
Zr2596     O2597   2.339       .  S
Zr2596     O2598   2.332       .  S
Zr2596     O2610   2.326       .  S
Zr2596     O2608   2.340       .  S
C2599      C3157   1.501       .  S
C2600      C3353   1.514       .  S
C2601      C3073   1.506       .  S
C2602      C3114   1.506       .  S
C2603      C3297   1.494       .  S
C2604      C3325   1.499       .  S
C2605      C3269   1.476       .  S
C2606      C3254   1.468       .  S
H2607      O2608   0.961       .  S
H2609      O2610   0.974       .  S
N2611      H2643   1.038       .  S
N2611      C2615   1.352       .  A
N2612      C2620   1.352       .  A
N2613      H2644   1.036       .  S
N2613      C2617   1.350       .  A
N2614      C2622   1.349       .  A
C2615      C2623   1.388       .  A
C2615      C2631   1.415       .  A
C2616      C2632   1.414       .  A
C2616      C2624   1.387       .  A
C2617      C2625   1.388       .  A
C2617      C2634   1.410       .  A
C2618      C2633   1.411       .  A
C2618      C2626   1.387       .  A
C2619      C2631   1.410       .  A
C2619      C2627   1.386       .  A
C2620      C2634   1.412       .  A
C2620      C2628   1.385       .  A
C2621      C2629   1.387       .  A
C2621      C2632   1.407       .  A
C2622      C2630   1.386       .  A
C2622      C2633   1.407       .  A
C2623      H2635   1.082       .  S
C2624      H2636   1.082       .  S
C2625      H2637   1.083       .  S
C2626      H2638   1.082       .  S
C2627      H2639   1.082       .  S
C2628      H2640   1.082       .  S
C2629      H2641   1.082       .  S
C2630      H2642   1.083       .  S
C2631      C3213   1.480       .  S
C2632      C3198   1.478       .  S
C2633      C3282   1.479       .  S
C2634      C3241   1.480       .  S
O2645      C2656   1.309       .  A
O2646     Zr2680   2.546       .  S
O2646      C2657   1.313       .  A
O2647     Zr2653   2.448   1_554  S
O2647      C2658   1.292       .  A
O2648      C2659   1.288       .  A
O2649      C2659   1.292       .  A
O2650      C2658   1.290   1_556  A
O2651     Zr2653   2.401   1_554  S
O2651      C2657   1.286       .  A
O2652     Zr2653   2.418       .  S
O2652      C2656   1.289       .  A
Zr2653     O2655   2.334       .  S
Zr2653     O2661   2.331   1_556  S
C2656      C3058   1.503       .  S
C2657      C2793   1.521       .  S
C2658      C2849   1.488       .  S
C2659      C2877   1.491   1_556  S
H2660      O2661   0.956       .  S
O2661     Zr2680   2.371       .  S
H2662      O2663   0.977       .  S
O2664      C2687   1.308       .  A
O2665     Zr2681   2.529       .  S
O2665      C2688   1.309       .  A
O2666      C2689   1.285       .  A
O2667      C2690   1.290       .  A
O2668     Zr2683   2.434       .  S
O2668      C2691   1.292       .  A
O2669     Zr2682   2.403       .  S
O2669      C2692   1.285       .  A
O2670     Zr2684   2.425       .  S
O2670      C2693   1.288       .  A
O2671      C2694   1.287       .  A
O2672     Zr2682   2.428       .  S
O2672      C2693   1.289       .  A
O2673     Zr2683   2.435   1_554  S
O2673      C2694   1.291       .  A
O2674     Zr2680   2.520       .  S
O2674      C2689   1.308       .  A
O2675     Zr2681   2.509       .  S
O2675      C2692   1.306       .  A
O2676      C2691   1.314       .  A
O2677      C2690   1.310       .  A
O2678     Zr2684   2.401   1_554  S
O2678      C2687   1.286       .  A
O2679     Zr2684   2.414       .  S
O2679      C2688   1.288       .  A
Zr2681     O2696   2.371       .  S
Zr2682     O2686   2.331   1_556  S
Zr2682     O2696   2.345       .  S
Zr2683     O2685   2.343       .  S
Zr2683     O2698   2.337   1_556  S
Zr2684     O2686   2.331   1_556  S
Zr2684     O2696   2.330       .  S
C2687      C2834   1.512       .  S
C2688      C3017   1.508       .  S
C2689      C2750   1.502       .  S
C2690      C2778   1.504   1_565  S
C2691      C2974   1.520       .  S
C2692      C2989   1.483       .  S
C2693      C2946   1.479   1_556  S
C2694      C2905   1.479       .  S
H2695      O2696   0.972       .  S
H2697      O2698   0.969       .  S
N2699      H2731   1.040       .  S
N2699      C2704   1.353       .  A
N2699      C2703   1.355       .  A
N2700      C2707   1.349       .  A
N2700      C2708   1.347       .  A
N2701      H2732   1.038       .  S
N2701      C2706   1.353       .  A
N2701      C2705   1.352       .  A
N2702      C2709   1.351       .  A
N2702      C2710   1.352       .  A
C2703      C2711   1.387       .  A
C2703      C2719   1.415       .  A
C2704      C2720   1.412       .  A
C2704      C2712   1.386       .  A
C2705      C2713   1.388       .  A
C2705      C2722   1.415       .  A
C2706      C2721   1.415       .  A
C2706      C2714   1.388       .  A
C2707      C2719   1.406       .  A
C2707      C2715   1.385       .  A
C2708      C2722   1.408       .  A
C2708      C2716   1.388       .  A
C2709      C2717   1.387       .  A
C2709      C2720   1.412       .  A
C2710      C2718   1.386       .  A
C2710      C2721   1.411       .  A
C2711      C2712   1.371       .  A
C2711      H2723   1.082       .  S
C2712      H2724   1.082       .  S
C2713      C2714   1.374       .  A
C2713      H2725   1.083       .  S
C2714      H2726   1.082       .  S
C2715      C2716   1.371       .  A
C2715      H2727   1.083       .  S
C2716      H2728   1.082       .  S
C2717      C2718   1.370       .  A
C2717      H2729   1.082       .  S
C2718      H2730   1.082       .  S
C2719      C2890   1.484       .  S
C2720      C2862   1.484       .  S
C2721      C2933   1.485       .  S
C2722      C2918   1.476       .  S
C2733      C2806   1.583       .  S
C2733      C2821   1.594       .  S
C2733      C3338   1.591       .  S
C2734      C2737   1.597       .  S
C2734      C2765   1.586   1_565  S
C2734      C3366   1.593       .  S
C2735      C3030   1.586       .  S
C2735      C3045   1.588   1_655  S
C2735      C3086   1.589       .  S
C2736      C2961   1.603       .  S
C2736      C3002   1.585       .  S
C2736      C3142   1.591       .  S
C2737      C2742   1.421       .  A
C2738      C2739   1.420       .  A
C2738      N2743   1.434       .  S
C2739      H2744   1.083       .  S
C2740      C2745   1.498       .  S
C2740      C2741   1.405       .  A
C2741      C2742   1.409       .  A
C2741      N2746   1.439       .  S
C2742      H2747   1.077       .  S
N2743      H2763   1.042       .  S
N2743      H2764   1.045       .  S
C2745      C2748   1.396       .  A
N2746      H2761   1.045       .  S
N2746      H2762   1.046       .  S
C2748      C2749   1.404       .  A
C2748      H2753   1.084       .  S
C2749      C2750   1.424       .  A
C2749      N2754   1.439       .  S
C2751      C2752   1.427       .  A
C2751      H2755   1.083       .  S
C2752      N2756   1.437       .  S
N2754      H2757   1.046       .  S
N2754      H2758   1.045       .  S
N2756      H2759   1.046       .  S
N2756      H2760   1.045       .  S
C2765      C2766   1.424   1_545  A
C2766      C2767   1.420       .  A
C2766      N2771   1.432       .  S
C2767      C2768   1.410   1_565  A
C2767      H2772   1.083       .  S
C2768      C2773   1.519       .  S
C2769      C2770   1.410       .  A
C2769      N2774   1.433       .  S
C2770      H2775   1.077       .  S
N2771      H2791   1.045       .  S
N2771      H2792   1.045       .  S
C2773      C2780   1.421   1_545  A
N2774      H2789   1.046       .  S
C2776      C2777   1.406       .  A
C2776      H2781   1.084       .  S
C2777      N2782   1.431       .  S
C2778      C2779   1.407   1_545  A
C2779      C2780   1.424       .  A
C2779      H2783   1.083       .  S
C2780      N2784   1.437       .  S
N2782      H2785   1.045       .  S
N2782      H2786   1.046       .  S
N2784      H2787   1.045       .  S
N2784      H2788   1.046       .  S
C2793      C2794   1.417       .  A
C2794      C2795   1.428       .  A
C2794      N2799   1.436       .  S
C2795      H2800   1.083       .  S
C2796      C2797   1.408   1_455  A
C2797      C2798   1.410       .  A
C2797      N2802   1.439       .  S
C2798      H2803   1.082       .  S
N2799      H2819   1.045       .  S
N2799      H2820   1.045       .  S
C2801      C2808   1.407       .  A
N2802      H2817   1.045       .  S
N2802      H2818   1.046   1_655  S
C2804      C2805   1.416       .  A
C2804      H2809   1.083       .  S
C2805      C2806   1.424       .  A
C2805      N2810   1.433       .  S
C2807      C2808   1.414       .  A
C2807      H2811   1.076       .  S
C2808      N2812   1.438       .  S
N2810      H2813   1.045       .  S
N2810      H2814   1.046       .  S
N2812      H2815   1.046       .  S
N2812      H2816   1.045       .  S
C2821      C2826   1.423       .  A
C2822      C2823   1.410       .  A
C2822      N2827   1.432       .  S
C2823      H2828   1.083       .  S
C2824      C2829   1.512   1_655  S
C2824      C2825   1.411       .  A
C2825      C2826   1.420       .  A
C2825      N2830   1.438       .  S
C2826      H2831   1.077       .  S
N2827      H2847   1.045       .  S
N2827      H2848   1.045       .  S
C2829      C2832   1.415   1_455  A
N2830      H2845   1.045       .  S
N2830      H2846   1.046       .  S
C2832      C2833   1.428   1_655  A
C2832      H2837   1.083       .  S
C2833      N2838   1.436   1_455  S
C2834      C2835   1.412       .  A
C2835      C2836   1.405       .  A
C2835      H2839   1.084       .  S
C2836      N2840   1.439       .  S
N2838      H2841   1.045       .  S
N2838      H2842   1.045       .  S
N2840      H2843   1.046       .  S
N2840      H2844   1.046       .  S
C2849      C2850   1.413   1_554  A
C2849      C2854   1.406       .  A
C2850      C2851   1.408   1_556  A
C2850      N2855   1.436       .  S
C2851      C2852   1.402       .  A
C2851      H2856   1.084   1_554  S
C2852      C2857   1.484       .  S
C2852      C2853   1.409       .  A
C2853      C2854   1.407       .  A
C2853      N2858   1.438       .  S
C2854      H2859   1.081       .  S
N2855      H2875   1.044       .  S
N2855      H2876   1.045       .  S
C2857      C2860   1.406       .  A
C2857      C2864   1.411       .  A
N2858      H2873   1.045       .  S
N2858      H2874   1.046       .  S
C2860      C2861   1.407       .  A
C2860      H2865   1.084       .  S
C2861      C2862   1.407       .  A
C2861      N2866   1.437       .  S
C2862      C2863   1.401       .  A
C2863      C2864   1.403       .  A
C2863      H2867   1.084       .  S
C2864      N2868   1.437   1_554  S
N2866      H2869   1.046       .  S
N2866      H2870   1.045       .  S
N2868      H2871   1.046       .  S
N2868      H2872   1.045       .  S
C2877      C2878   1.416       .  A
C2877      C2882   1.411       .  A
C2878      C2879   1.409       .  A
C2878      N2883   1.437   1_554  S
C2879      C2880   1.402       .  A
C2879      H2884   1.084       .  S
C2880      C2885   1.477       .  S
C2880      C2881   1.403       .  A
C2881      C2882   1.401       .  A
C2881      N2886   1.438       .  S
C2882      H2887   1.083       .  S
N2883      H2903   1.046       .  S
N2883      H2904   1.046       .  S
C2885      C2888   1.400       .  A
C2885      C2892   1.410       .  A
N2886      H2901   1.045       .  S
N2886      H2902   1.045       .  S
C2888      C2889   1.403       .  A
C2888      H2893   1.084       .  S
C2889      C2890   1.411       .  A
C2889      N2894   1.438       .  S
C2890      C2891   1.401       .  A
C2891      C2892   1.406       .  A
C2891      H2895   1.084       .  S
C2892      N2896   1.437       .  S
N2894      H2897   1.046   1_554  S
N2894      H2898   1.045       .  S
N2896      H2899   1.046       .  S
N2896      H2900   1.046       .  S
C2905      C2906   1.422       .  A
C2905      C2910   1.404       .  A
C2906      C2907   1.394       .  A
C2906      N2911   1.429       .  S
C2907      C2908   1.395       .  A
C2907      H2912   1.084       .  S
C2908      C2913   1.468       .  S
C2908      C2909   1.407       .  A
C2909      C2910   1.402       .  A
C2909      N2914   1.438       .  S
C2910      H2915   1.084   1_554  S
N2911      H2931   1.044       .  S
N2911      H2932   1.045       .  S
C2913      C2916   1.397       .  A
C2913      C2920   1.408       .  A
N2914      H2929   1.045   1_554  S
N2914      H2930   1.046       .  S
C2916      C2917   1.392       .  A
C2916      H2921   1.084       .  S
C2917      C2918   1.417       .  A
C2917      N2922   1.440       .  S
C2918      C2919   1.402       .  A
C2919      C2920   1.404       .  A
C2919      H2923   1.084       .  S
C2920      N2924   1.438       .  S
N2922      H2925   1.045   1_554  S
N2922      H2926   1.042       .  S
N2924      H2927   1.046       .  S
N2924      H2928   1.045       .  S
C2933      C2934   1.415       .  A
C2933      C2938   1.404       .  A
C2934      C2935   1.401       .  A
C2934      N2939   1.438       .  S
C2935      C2936   1.403       .  A
C2935      H2940   1.084       .  S
C2936      C2941   1.479       .  S
C2936      C2937   1.408       .  A
C2937      C2938   1.404       .  A
C2937      N2942   1.438   1_554  S
C2938      H2943   1.084       .  S
N2939      H2959   1.043       .  S
N2939      H2960   1.045       .  S
C2941      C2944   1.402       .  A
C2941      C2948   1.409       .  A
N2942      H2957   1.045       .  S
N2942      H2958   1.046       .  S
C2944      C2945   1.402   1_554  A
C2944      H2949   1.084   1_554  S
C2945      C2946   1.411   1_556  A
C2945      N2950   1.433       .  S
C2946      C2947   1.406       .  A
C2947      C2948   1.404       .  A
C2947      H2951   1.084       .  S
C2948      N2952   1.438       .  S
N2950      H2953   1.046       .  S
N2950      H2954   1.045       .  S
N2952      H2955   1.046       .  S
N2952      H2956   1.046       .  S
C2961      C2966   1.421       .  A
C2962      C2963   1.406       .  A
C2962      N2967   1.433       .  S
C2963      H2968   1.085       .  S
C2964      C2969   1.518       .  S
C2964      C2965   1.414       .  A
C2965      C2966   1.428       .  A
C2965      N2970   1.436       .  S
C2966      H2971   1.083       .  S
N2967      H2987   1.046       .  S
N2967      H2988   1.046       .  S
C2969      C2972   1.413       .  A
N2970      H2985   1.045       .  S
N2970      H2986   1.045       .  S
C2972      C2973   1.429       .  A
C2972      H2977   1.083       .  S
C2973      C2974   1.418       .  A
C2973      N2978   1.436       .  S
C2975      C2976   1.411       .  A
C2975      H2979   1.084       .  S
C2976      N2980   1.437       .  S
N2978      H2981   1.046       .  S
N2978      H2982   1.046       .  S
N2980      H2983   1.046       .  S
N2980      H2984   1.045       .  S
C2989      C2994   1.405       .  A
C2990      C2991   1.417       .  A
C2990      N2995   1.435       .  S
C2991      H2996   1.083       .  S
C2992      C2997   1.495       .  S
C2992      C2993   1.413       .  A
C2993      C2994   1.414       .  A
C2993      N2998   1.437       .  S
C2994      H2999   1.084       .  S
N2995      H3015   1.046       .  S
N2995      H3016   1.046       .  S
C2997      C3004   1.414       .  A
N2998      H3013   1.046       .  S
N2998      H3014   1.046       .  S
C3000      C3001   1.403       .  A
C3000      H3005   1.084       .  S
C3001      N3006   1.433   1_565  S
C3002      C3003   1.416       .  A
C3003      C3004   1.424       .  A
C3003      H3007   1.080       .  S
C3004      N3008   1.436       .  S
N3006      H3009   1.046   1_545  S
N3006      H3010   1.046       .  S
N3008      H3011   1.045       .  S
N3008      H3012   1.046       .  S
C3017      C3022   1.409       .  A
C3018      C3019   1.408       .  A
C3018      N3023   1.434       .  S
C3019      C3020   1.402       .  A
C3019      H3024   1.084       .  S
C3020      C3025   1.510       .  S
C3021      C3022   1.427       .  A
C3021      N3026   1.437       .  S
C3022      H3027   1.083       .  S
N3023      H3043   1.046       .  S
N3023      H3044   1.045       .  S
C3025      C3032   1.411       .  A
N3026      H3041   1.046       .  S
N3026      H3042   1.046       .  S
C3028      C3029   1.419       .  A
C3028      H3033   1.083       .  S
C3029      N3034   1.432       .  S
C3030      C3031   1.421       .  A
C3031      C3032   1.415       .  A
C3031      H3035   1.079       .  S
C3032      N3036   1.438       .  S
N3034      H3037   1.045       .  S
N3034      H3038   1.046       .  S
N3036      H3039   1.046       .  S
N3036      H3040   1.045       .  S
C3045      C3046   1.425   1_455  A
C3046      C3047   1.419       .  A
C3046      N3051   1.431       .  S
C3047      H3052   1.083       .  S
C3048      C3053   1.519       .  S
C3048      C3049   1.414       .  A
C3049      C3050   1.414       .  A
C3049      N3054   1.438       .  S
C3050      H3055   1.079       .  S
N3051      H3071   1.046       .  S
N3051      H3072   1.045       .  S
C3053      C3056   1.407       .  A
N3054      H3069   1.046       .  S
N3054      H3070   1.046       .  S
C3056      C3057   1.412       .  A
C3056      H3061   1.083       .  S
C3057      C3058   1.417       .  A
C3057      N3062   1.439       .  S
C3059      C3060   1.422       .  A
C3059      H3063   1.083       .  S
C3060      N3064   1.437       .  S
N3062      H3065   1.045       .  S
N3062      H3066   1.044       .  S
N3064      H3067   1.046       .  S
N3064      H3068   1.045       .  S
C3073      C3074   1.420       .  A
C3073      C3078   1.405       .  A
C3074      C3075   1.415       .  A
C3074      N3079   1.438       .  S
C3075      C3076   1.407       .  A
C3075      H3080   1.083       .  S
C3076      C3081   1.519       .  S
C3076      C3077   1.419       .  A
C3077      C3078   1.420       .  A
C3077      N3082   1.431       .  S
C3078      H3083   1.083       .  S
N3079      H3099   1.046       .  S
N3079      H3100   1.046       .  S
C3081      C3084   1.406       .  A
C3081      C3088   1.414       .  A
N3082      H3097   1.045       .  S
N3082      H3098   1.046       .  S
C3084      C3085   1.415       .  A
C3084      H3089   1.083       .  S
C3085      C3086   1.429       .  A
C3085      N3090   1.432       .  S
C3086      C3087   1.418       .  A
C3087      C3088   1.417       .  A
C3087      H3091   1.082       .  S
C3088      N3092   1.432       .  S
N3090      H3093   1.045       .  S
N3090      H3094   1.045       .  S
N3092      H3095   1.045       .  S
N3092      H3096   1.046       .  S
C3101      C3102   1.428       .  A
C3101      C3106   1.414       .  A
C3102      C3103   1.418       .  A
C3102      N3107   1.432       .  S
C3103      C3104   1.409       .  A
C3103      H3108   1.083       .  S
C3104      C3109   1.523       .  S
C3104      C3105   1.419       .  A
C3105      C3106   1.414       .  A
C3105      N3110   1.438       .  S
C3106      H3111   1.081       .  S
N3107      H3127   1.046       .  S
N3107      H3128   1.045       .  S
C3109      C3112   1.406       .  A
C3109      C3116   1.424       .  A
N3110      H3125   1.046       .  S
N3110      H3126   1.046       .  S
C3112      C3113   1.408       .  A
C3112      H3117   1.082       .  S
C3113      C3114   1.420       .  A
C3113      N3118   1.440       .  S
C3114      C3115   1.406       .  A
C3115      C3116   1.425       .  A
C3115      H3119   1.083       .  S
C3116      N3120   1.437       .  S
N3118      H3121   1.046       .  S
N3118      H3122   1.046       .  S
N3120      H3123   1.046       .  S
N3120      H3124   1.045       .  S
C3129      C3130   1.412       .  A
C3129      C3134   1.407       .  A
C3130      C3131   1.408       .  A
C3130      N3135   1.433       .  S
C3131      C3132   1.407       .  A
C3131      H3136   1.084       .  S
C3132      C3137   1.509       .  S
C3132      C3133   1.416       .  A
C3133      C3134   1.420       .  A
C3133      N3138   1.436       .  S
C3134      H3139   1.083       .  S
N3135      H3155   1.046       .  S
N3135      H3156   1.045       .  S
C3137      C3140   1.409       .  A
C3137      C3144   1.405       .  A
N3138      H3153   1.045       .  S
N3138      H3154   1.045       .  S
C3140      C3141   1.421       .  A
C3140      H3145   1.083       .  S
C3141      C3142   1.424       .  A
C3141      N3146   1.431       .  S
C3142      C3143   1.428       .  A
C3143      C3144   1.406       .  A
C3143      H3147   1.078       .  S
C3144      N3148   1.440       .  S
N3146      H3149   1.045       .  S
N3146      H3150   1.044       .  S
N3148      H3151   1.046       .  S
N3148      H3152   1.046       .  S
C3157      C3158   1.410       .  A
C3157      C3162   1.411       .  A
C3158      C3159   1.417       .  A
C3158      N3163   1.437       .  S
C3159      C3160   1.413       .  A
C3159      H3164   1.083       .  S
C3160      C3165   1.511       .  S
C3160      C3161   1.413       .  A
C3161      C3162   1.413       .  A
C3161      N3166   1.438       .  S
C3162      H3167   1.082       .  S
N3163      H3183   1.046       .  S
N3163      H3184   1.045       .  S
C3165      C3168   1.411       .  A
C3165      C3172   1.404       .  A
N3166      H3181   1.045       .  S
N3166      H3182   1.046       .  S
C3168      C3169   1.421       .  A
C3168      H3173   1.083       .  S
C3169      C3170   1.425       .  A
C3169      N3174   1.429       .  S
C3170      C3171   1.423       .  A
C3171      C3172   1.403       .  A
C3171      H3175   1.083       .  S
C3172      N3176   1.432       .  S
N3174      H3177   1.045       .  S
N3174      H3178   1.045       .  S
N3176      H3179   1.045       .  S
N3176      H3180   1.046       .  S
C3185      C3186   1.415       .  A
C3185      C3190   1.405       .  A
C3186      C3187   1.395       .  A
C3186      N3191   1.433       .  S
C3187      C3188   1.396       .  A
C3187      H3192   1.084       .  S
C3188      C3193   1.468       .  S
C3188      C3189   1.407       .  A
C3189      C3190   1.404       .  A
C3189      N3194   1.437       .  S
C3190      H3195   1.084       .  S
N3191      H3211   1.045       .  S
N3191      H3212   1.045       .  S
C3193      C3196   1.398       .  A
C3193      C3200   1.410       .  A
N3194      H3209   1.046       .  S
N3194      H3210   1.046       .  S
C3196      C3197   1.393       .  A
C3196      H3201   1.084       .  S
C3197      C3198   1.412       .  A
C3197      N3202   1.433       .  S
C3198      C3199   1.400       .  A
C3199      C3200   1.404       .  A
C3199      H3203   1.084       .  S
C3200      N3204   1.438       .  S
N3202      H3205   1.045       .  S
N3202      H3206   1.045       .  S
N3204      H3207   1.045       .  S
N3204      H3208   1.046       .  S
C3213      C3214   1.413       .  A
C3213      C3218   1.400       .  A
C3214      C3215   1.395       .  A
C3214      N3219   1.433       .  S
C3215      C3216   1.399       .  A
C3215      H3220   1.084       .  S
C3216      C3221   1.473       .  S
C3216      C3217   1.410       .  A
C3217      C3218   1.405       .  A
C3217      N3222   1.437       .  S
C3218      H3223   1.084       .  S
N3219      H3239   1.045       .  S
N3219      H3240   1.045       .  S
C3221      C3224   1.399       .  A
C3221      C3228   1.406       .  A
N3222      H3237   1.046       .  S
N3222      H3238   1.046       .  S
C3224      C3225   1.400       .  A
C3224      H3229   1.084       .  S
C3225      C3226   1.417       .  A
C3225      N3230   1.434       .  S
C3226      C3227   1.407       .  A
C3227      C3228   1.403       .  A
C3227      H3231   1.083       .  S
C3228      N3232   1.437       .  S
N3230      H3233   1.046       .  S
N3230      H3234   1.046       .  S
N3232      H3235   1.046       .  S
N3232      H3236   1.046       .  S
C3241      C3242   1.405       .  A
C3241      C3246   1.402       .  A
C3242      C3243   1.402       .  A
C3242      N3247   1.432       .  S
C3243      C3244   1.402       .  A
C3243      H3248   1.084       .  S
C3244      C3249   1.469       .  S
C3244      C3245   1.407       .  A
C3245      C3246   1.401       .  A
C3245      N3250   1.438       .  S
C3246      H3251   1.084       .  S
N3247      H3267   1.046       .  S
N3247      H3268   1.045       .  S
C3249      C3252   1.401       .  A
C3249      C3256   1.406       .  A
N3250      H3265   1.046       .  S
N3250      H3266   1.046       .  S
C3252      C3253   1.399       .  A
C3252      H3257   1.084       .  S
C3253      C3254   1.407       .  A
C3253      N3258   1.432       .  S
C3254      C3255   1.405       .  A
C3255      C3256   1.400       .  A
C3255      H3259   1.084       .  S
C3256      N3260   1.438       .  S
N3258      H3261   1.046       .  S
N3258      H3262   1.046       .  S
N3260      H3263   1.046       .  S
N3260      H3264   1.046       .  S
C3269      C3270   1.415       .  A
C3269      C3274   1.405       .  A
C3270      C3271   1.400       .  A
C3270      N3275   1.433       .  S
C3271      C3272   1.398       .  A
C3271      H3276   1.084       .  S
C3272      C3277   1.467       .  S
C3272      C3273   1.403       .  A
C3273      C3274   1.398       .  A
C3273      N3278   1.432       .  S
C3274      H3279   1.083       .  S
N3275      H3295   1.046       .  S
N3275      H3296   1.046       .  S
C3277      C3280   1.398       .  A
C3277      C3284   1.409       .  A
N3278      H3293   1.046       .  S
N3278      H3294   1.046       .  S
C3280      C3281   1.393       .  A
C3280      H3285   1.084       .  S
C3281      C3282   1.412       .  A
C3281      N3286   1.433       .  S
C3282      C3283   1.401       .  A
C3283      C3284   1.404       .  A
C3283      H3287   1.084       .  S
C3284      N3288   1.437       .  S
N3286      H3289   1.045       .  S
N3286      H3290   1.045       .  S
N3288      H3291   1.046       .  S
N3288      H3292   1.045       .  S
C3297      C3298   1.415       .  A
C3297      C3302   1.405       .  A
C3298      C3299   1.407       .  A
C3298      N3303   1.434       .  S
C3299      C3300   1.404       .  A
C3299      H3304   1.084       .  S
C3300      C3305   1.508       .  S
C3300      C3301   1.418       .  A
C3301      C3302   1.420       .  A
C3301      N3306   1.437       .  S
C3302      H3307   1.083       .  S
N3303      H3323   1.046       .  S
N3303      H3324   1.046       .  S
C3305      C3308   1.407       .  A
C3305      C3312   1.410       .  A
N3306      H3321   1.046       .  S
N3306      H3322   1.046       .  S
C3308      C3309   1.417       .  A
C3308      H3313   1.084       .  S
C3309      C3310   1.424       .  A
C3309      N3314   1.431       .  S
C3310      C3311   1.420       .  A
C3311      C3312   1.410       .  A
C3311      H3315   1.078       .  S
C3312      N3316   1.438       .  S
N3314      H3317   1.046       .  S
N3314      H3318   1.045       .  S
N3316      H3319   1.046       .  S
N3316      H3320   1.046       .  S
C3325      C3326   1.412       .  A
C3325      C3330   1.408       .  A
C3326      C3327   1.422       .  A
C3326      N3331   1.436       .  S
C3327      C3328   1.413       .  A
C3327      H3332   1.083       .  S
C3328      C3333   1.514       .  S
C3328      C3329   1.416       .  A
C3329      C3330   1.410       .  A
C3329      N3334   1.439       .  S
C3330      H3335   1.085       .  S
N3331      H3351   1.045       .  S
N3331      H3352   1.046       .  S
C3333      C3336   1.400       .  A
C3333      C3340   1.415       .  A
N3334      H3349   1.046       .  S
N3334      H3350   1.045       .  S
C3336      C3337   1.408       .  A
C3336      H3341   1.084       .  S
C3337      C3338   1.434       .  A
C3337      N3342   1.433       .  S
C3338      C3339   1.419       .  A
C3339      C3340   1.422       .  A
C3339      H3343   1.083       .  S
C3340      N3344   1.437       .  S
N3342      H3345   1.046       .  S
N3342      H3346   1.046       .  S
N3344      H3347   1.045       .  S
N3344      H3348   1.045       .  S
C3353      C3354   1.426       .  A
C3353      C3358   1.406       .  A
C3354      C3355   1.406       .  A
C3354      N3359   1.440       .  S
C3355      C3356   1.401       .  A
C3355      H3360   1.082       .  S
C3356      C3361   1.523       .  S
C3356      C3357   1.427       .  A
C3357      C3358   1.427       .  A
C3357      N3362   1.437       .  S
C3358      H3363   1.083       .  S
N3359      H3379   1.045       .  S
N3359      H3380   1.046       .  S
C3361      C3364   1.405       .  A
C3361      C3368   1.422       .  A
N3362      H3377   1.046       .  S
N3362      H3378   1.045       .  S
C3364      C3365   1.415       .  A
C3364      H3369   1.083       .  S
C3365      C3366   1.431       .  A
C3365      N3370   1.432       .  S
C3366      C3367   1.416       .  A
C3367      C3368   1.417       .  A
C3367      H3371   1.083       .  S
C3368      N3372   1.438       .  S
N3370      H3373   1.045       .  S
N3370      H3374   1.046       .  S
N3372      H3375   1.046       .  S
N3372      H3376   1.046       .  S
C3381      C3382   1.417       .  A
C3381      C3386   1.419       .  A
C3382      C3383   1.426       .  A
C3382      N3387   1.436       .  S
C3383      C3384   1.412       .  A
C3383      H3388   1.083       .  S
C3384      C3389   1.508       .  S
C3384      C3385   1.405       .  A
C3385      C3386   1.410       .  A
C3385      N3390   1.439       .  S
C3386      H3391   1.083       .  S
N3387      H3407   1.045       .  S
N3387      H3408   1.046       .  S
C3389      C3392   1.405       .  A
C3389      C3396   1.406       .  A
N3390      H3405   1.046       .  S
N3390      H3406   1.046       .  S
C3392      C3393   1.417       .  A
C3392      H3397   1.084       .  S
C3393      C3394   1.427       .  A
C3393      N3398   1.431       .  S
C3394      C3395   1.422       .  A
C3395      C3396   1.415       .  A
C3395      H3399   1.076       .  S
C3396      N3400   1.438       .  S
N3398      H3401   1.045       .  S
N3398      H3402   1.046       .  S
N3400      H3403   1.046       .  S
N3400      H3404   1.045       .  S
