geometry optimzed in LAMMPS
_audit_creation_date              2020-11-30 
_audit_creation_method            'lammps2cif' 
_symmetry_space_group_name_H-M    'P1' 
_symmetry_Int_Tables_number       1 
_symmetry_cell_setting            triclinic 
loop_ 
_symmetry_equiv_pos_as_xyz 
  x,y,z 
_cell_length_a                    48.58419652349488 
_cell_length_b                    48.529917588905455 
_cell_length_c                    48.30912050729349 
_cell_angle_alpha                 90.0873246740409 
_cell_angle_beta                  90.11958512583091 
_cell_angle_gamma                 89.84983680690334 
loop_ 
_atom_site_label 
_atom_site_type_symbol 
_atom_site_fract_x 
_atom_site_fract_y 
_atom_site_fract_z 
_atom_site_charge 
C1          C  0.20298056  0.16269780  0.19360751     0.03140
C2          C  0.17819060  0.16683242  0.20770087    -0.13010
C3          C  0.16044947  0.18813468  0.19987144     0.00640
C4          C  0.16684106  0.20448111  0.17690857    -0.11540
C5          C  0.19190757  0.20091762  0.16258797     0.03130
C6          C  0.21046757  0.18072604  0.17226351    -0.10960
H7          H  0.17242767  0.15307709  0.22437712     0.08720
H8          H  0.15197420  0.21973043  0.17013542     0.06250
H9          H  0.23044070  0.17822158  0.16281760     0.06100
C10         C  0.20213295  0.78815661  0.19121272     0.03140
C11         C  0.20772222  0.77071382  0.16874940    -0.13010
C12         C  0.19067913  0.74805760  0.16320281     0.00640
C13         C  0.16799225  0.74292896  0.18035343    -0.11540
C14         C  0.16244327  0.76017119  0.20296587     0.03130
C15         C  0.17958927  0.78271093  0.20840728    -0.10960
H16         H  0.22456823  0.77549811  0.15490500     0.08720
H17         H  0.15419662  0.72603509  0.17561788     0.06250
H18         H  0.17486153  0.79651299  0.22541053     0.06100
C19         C  0.78847677  0.18998842  0.20151107     0.03140
C20         C  0.76955785  0.16990527  0.20957658    -0.13010
C21         C  0.74653558  0.16390207  0.19296993     0.00640
C22         C  0.74209869  0.17942583  0.16875284    -0.11540
C23         C  0.76101699  0.19973010  0.16045308     0.03130
C24         C  0.78425994  0.20472166  0.17703635    -0.10960
H25         H  0.77338915  0.15822957  0.22830262     0.08720
H26         H  0.72440493  0.17507018  0.15583548     0.06250
H27         H  0.79942541  0.21978284  0.17070047     0.06100
C28         C  0.19375102  0.20293855  0.78491060     0.03140
C29         C  0.17156627  0.20903961  0.76730745    -0.13010
C30         C  0.16403081  0.19078948  0.74588855     0.00640
C31         C  0.17920135  0.16631274  0.74247456    -0.11540
C32         C  0.20238058  0.16097128  0.75890495     0.03130
C33         C  0.20948193  0.17916596  0.78018874    -0.10960
H34         H  0.15924414  0.22723975  0.77129797     0.08720
H35         H  0.17248505  0.15077249  0.72791957     0.06250
H36         H  0.22649833  0.17419471  0.79386024     0.06100
N37         N  0.30023061  0.91824149  0.21176146    -0.27280
N38         N  0.27647717  0.93107809  0.21504036    -0.35140
C39         C  0.25604670  0.91253220  0.21332615     0.01060
C40         C  0.26736112  0.88660136  0.20868260     0.07080
C41         C  0.29554621  0.89125923  0.20756082    -0.06020
H42         H  0.23442528  0.91769041  0.21484115     0.07750
H43         H  0.31163359  0.87667714  0.20281231     0.08950
Cu44       Cu  0.27297539  0.97359469  0.21851901     0.44170
Cu45       Cu  0.33786296  0.93825273  0.21245583     0.41990
Cu46       Cu  0.33599417  0.01284088  0.20981259     0.43880
N47         N  0.27425015  0.01616960  0.21448896    -0.34670
N48         N  0.29700740  0.03035193  0.21017766    -0.28920
C49         C  0.29039225  0.05703076  0.20653963    -0.05020
C50         C  0.26204075  0.05988952  0.20848509     0.07190
C51         C  0.25262031  0.03347440  0.21398215     0.00990
H52         H  0.30515705  0.07313361  0.20235851     0.08640
H53         H  0.23177039  0.02700086  0.21777463     0.07720
N54         N  0.37202390  0.99006927  0.21328275    -0.36120
N55         N  0.37260896  0.96287705  0.21457200    -0.28300
C56         C  0.39886774  0.95447956  0.21710097    -0.03540
C57         C  0.41570695  0.97746004  0.21763840     0.05070
C58         C  0.39792919  0.99968403  0.21485381     0.03160
H59         H  0.40526831  0.93314717  0.21835396     0.08270
H60         H  0.40326312  0.02119976  0.21310434     0.07100
N61         N  0.65061023  0.03215638  0.21031708    -0.27280
N62         N  0.67233486  0.01813993  0.20188380    -0.35140
C63         C  0.69336390  0.03552914  0.19791406     0.01060
C64         C  0.68491640  0.06199365  0.20484934     0.07080
C65         C  0.65743621  0.05896282  0.21231509    -0.06020
H66         H  0.71302724  0.02899580  0.18998192     0.07750
H67         H  0.64342580  0.07502935  0.21889772     0.08950
Cu68       Cu  0.67353609  0.97572379  0.19840146     0.44170
Cu69       Cu  0.61291213  0.01338195  0.21758638     0.41990
Cu70       Cu  0.61456528  0.93764325  0.22081234     0.43880
N71         N  0.67366922  0.93348218  0.20360215    -0.34670
N72         N  0.65246179  0.91936900  0.21296005    -0.28920
C73         C  0.65963394  0.89261400  0.21468644    -0.05020
C74         C  0.68680410  0.88978864  0.20617489     0.07190
C75         C  0.69476826  0.91620587  0.19891855     0.00990
H76         H  0.64596162  0.87636816  0.22133539     0.08640
H77         H  0.71394940  0.92255974  0.18977792     0.07720
N78         N  0.57887258  0.96129996  0.22187049    -0.36120
N79         N  0.57823419  0.98851498  0.22038931    -0.28300
C80         C  0.55183605  0.99690847  0.21980042    -0.03540
C81         C  0.53500131  0.97393957  0.22066890     0.05070
C82         C  0.55291957  0.95174411  0.22236270     0.03160
H83         H  0.54534813  0.01818951  0.21817386     0.08270
H84         H  0.54772302  0.93019717  0.22409702     0.07100
C85         C  0.78508725  0.75658424  0.20368940     0.03140
C86         C  0.76906907  0.78038708  0.20789015    -0.13010
C87         C  0.74764435  0.78753175  0.18945938     0.00640
C88         C  0.74352796  0.77109427  0.16583733    -0.11540
C89         C  0.75859132  0.74675481  0.16198259     0.03130
C90         C  0.77901191  0.73944740  0.18105361    -0.10960
H91         H  0.77415125  0.79413574  0.22470911     0.08720
H92         H  0.72953095  0.77767707  0.14973722     0.06250
H93         H  0.79112645  0.72100089  0.17746230     0.06100
N94         N  0.20637712  0.29770234  0.91841295    -0.27280
N95         N  0.20914428  0.27495720  0.93305242    -0.35140
C96         C  0.20923637  0.25315726  0.91597204     0.01060
C97         C  0.20557482  0.26226338  0.88891989     0.07080
C98         C  0.20407184  0.29084705  0.89151602    -0.06020
H99         H  0.21217782  0.23249199  0.92337674     0.07750
H100        H  0.20121988  0.30570950  0.87510581     0.08950
Cu101      Cu  0.21071310  0.27379226  0.97576971     0.44170
Cu102      Cu  0.20734379  0.33672191  0.93616010     0.41990
Cu103      Cu  0.21738613  0.33765910  0.01158090     0.43880
N104        N  0.20941659  0.27690559  0.01840150    -0.34670
N105        N  0.21261507  0.30036335  0.03182589    -0.28920
C106        C  0.21121326  0.29554557  0.05920533    -0.05020
C107        C  0.20634933  0.26762319  0.06328245     0.07190
C108        C  0.20551172  0.25657973  0.03677107     0.00990
H109        H  0.21428960  0.31127997  0.07467115     0.08640
H110        H  0.20216523  0.23526072  0.03114606     0.07720
N111        N  0.21761894  0.37235207  0.98658914    -0.36120
N112        N  0.21341226  0.37220684  0.95952957    -0.28300
C113        C  0.21377447  0.39832336  0.95021891    -0.03540
C114        C  0.21875431  0.41574765  0.97243629     0.05070
C115        C  0.22081382  0.39849601  0.99513724     0.03160
H116        H  0.20960629  0.40403559  0.92902058     0.08270
H117        H  0.22408377  0.40454921  0.01645520     0.07100
N118        N  0.21302706  0.65357204  0.03139234    -0.27280
N119        N  0.20789504  0.67611522  0.01692600    -0.35140
C120        C  0.20329211  0.69716505  0.03442439     0.01060
C121        C  0.20520632  0.68734855  0.06123538     0.07080
C122        C  0.21176035  0.65970374  0.05853685    -0.06020
H123        H  0.19905215  0.71806455  0.02796445     0.07750
H124        H  0.21463996  0.64497044  0.07508380     0.08950
Cu125      Cu  0.20606775  0.67731979  0.97410265     0.44170
Cu126      Cu  0.21969464  0.61525498  0.01347428     0.41990
Cu127      Cu  0.21576690  0.61299281  0.93831962     0.43880
N128        N  0.20562089  0.67362818  0.93138556    -0.34670
N129        N  0.21008992  0.65021009  0.91821785    -0.28920
C130        C  0.20975378  0.65486712  0.89079391    -0.05020
C131        C  0.20424351  0.68261397  0.88629070     0.07190
C132        C  0.20190541  0.69375038  0.91270139     0.00990
H133        H  0.21410757  0.63912880  0.87564883     0.08640
H134        H  0.19783414  0.71502580  0.91805773     0.07720
N135        N  0.21888459  0.57839486  0.96315494    -0.36120
N136        N  0.22093496  0.57916587  0.99041941    -0.28300
C137        C  0.22224932  0.55323453  0.00011436    -0.03540
C138        C  0.22041401  0.53516335  0.97789900     0.05070
C139        C  0.21859246  0.55198435  0.95481612     0.03160
H140        H  0.22471959  0.54824800  0.02173706     0.08270
H141        H  0.21666344  0.54548326  0.93346558     0.07100
C142        C  0.20517858  0.78637526  0.75563077     0.03140
C143        C  0.21192126  0.76745021  0.77661516    -0.13010
C144        C  0.19242338  0.74843606  0.78628788     0.00640
C145        C  0.16726045  0.74602244  0.77206527    -0.11540
C146        C  0.16130401  0.76305714  0.74946725     0.03130
C147        C  0.17960202  0.78405155  0.74222396    -0.10960
H148        H  0.23218059  0.76814072  0.78585178     0.08720
H149        H  0.15209549  0.73108037  0.77865865     0.06250
H150        H  0.17371160  0.79866826  0.72634358     0.06100
N151        N  0.91878704  0.21186949  0.29809090    -0.27280
N152        N  0.93221915  0.21177175  0.27433706    -0.35140
C153        C  0.91397112  0.20949240  0.25351273     0.01060
C154        C  0.88775623  0.20835452  0.26466607     0.07080
C155        C  0.89166916  0.20961146  0.29303786    -0.06020
H156        H  0.91941256  0.20829613  0.23183805     0.07750
H157        H  0.87624043  0.20773229  0.30898968     0.08950
Cu158      Cu  0.97478536  0.21283989  0.27141923     0.44170
Cu159      Cu  0.93787581  0.21387739  0.33635540     0.41990
Cu160      Cu  0.01224709  0.21146804  0.33641645     0.43880
N161        N  0.01733495  0.21060529  0.27420318    -0.34670
N162        N  0.03093753  0.20945880  0.29788376    -0.28920
C163        C  0.05794360  0.20650729  0.29258531    -0.05020
C164        C  0.06167795  0.20622043  0.26412137     0.07190
C165        C  0.03536048  0.20861565  0.25321977     0.00990
H166        H  0.07333594  0.20357966  0.30845707     0.08640
H167        H  0.02966814  0.20855861  0.23155446     0.07720
N168        N  0.98873581  0.21494418  0.37206112    -0.36120
N169        N  0.96152493  0.21590789  0.37195677    -0.28300
C170        C  0.95247108  0.21802108  0.39815625    -0.03540
C171        C  0.97508200  0.21845925  0.41546579     0.05070
C172        C  0.99774398  0.21640907  0.39837669     0.03160
H173        H  0.93104411  0.21891592  0.40414723     0.08270
H174        H  0.01913909  0.21582459  0.40459320     0.07100
N175        N  0.03149350  0.21270970  0.65109365    -0.27280
N176        N  0.01766283  0.20443721  0.67301025    -0.35140
C177        C  0.03520550  0.20024059  0.69405915     0.01060
C178        C  0.06157180  0.20675446  0.68535519     0.07080
C179        C  0.05836255  0.21429173  0.65776457    -0.06020
H180        H  0.02896559  0.19201671  0.71377254     0.07750
H181        H  0.07439302  0.22028991  0.64349674     0.08950
Cu182      Cu  0.97546286  0.20004116  0.67386218     0.44170
Cu183      Cu  0.01238746  0.21949704  0.61323100     0.41990
Cu184      Cu  0.93630028  0.21692579  0.61341129     0.43880
N185        N  0.93307606  0.20243557  0.67350029    -0.34670
N186        N  0.91839391  0.20983395  0.65178980    -0.28920
C187        C  0.89169100  0.21059198  0.65908653    -0.05020
C188        C  0.88924238  0.20314282  0.68691157     0.07190
C189        C  0.91628559  0.19791161  0.69496632     0.00990
H190        H  0.87532601  0.21619922  0.64495313     0.08640
H191        H  0.92399354  0.19075154  0.71458309     0.07720
N192        N  0.96050907  0.21980205  0.57806278    -0.36120
N193        N  0.98775646  0.22092634  0.57806530    -0.28300
C194        C  0.99669799  0.22159800  0.55174473    -0.03540
C195        C  0.97407118  0.22083783  0.53447812     0.05070
C196        C  0.95148019  0.21965710  0.55170780     0.03160
H197        H  0.01810655  0.22194842  0.54564514     0.08270
H198        H  0.93010486  0.21826595  0.54556172     0.07100
C199        C  0.75758508  0.20255941  0.78677985     0.03140
C200        C  0.77965165  0.20826866  0.76902228    -0.13010
C201        C  0.78605678  0.19050738  0.74699092     0.00640
C202        C  0.76985371  0.16700437  0.74259710    -0.11540
C203        C  0.74741561  0.16146145  0.75987456     0.03130
C204        C  0.74149166  0.17906288  0.78208781    -0.10960
H205        H  0.79254370  0.22604512  0.77301776     0.08720
H206        H  0.77531778  0.15237686  0.72656151     0.06250
H207        H  0.72511886  0.17379417  0.79630710     0.06100
N208        N  0.73660499  0.29959800  0.03079331    -0.27280
N209        N  0.74370344  0.27715139  0.01708912    -0.35140
C210        C  0.74863510  0.25677724  0.03518903     0.01060
C211        C  0.74443322  0.26666872  0.06182324     0.07080
C212        C  0.73649184  0.29397564  0.05804881    -0.06020
H213        H  0.75508056  0.23624429  0.02927970     0.07750
H214        H  0.73049899  0.30878338  0.07356694     0.08950
Cu215      Cu  0.74557252  0.27484592  0.97444690     0.44170
Cu216      Cu  0.72910253  0.33711668  0.01156682     0.41990
Cu217      Cu  0.73424730  0.33743329  0.93616905     0.43880
N218        N  0.74411751  0.27650311  0.93175456    -0.34670
N219        N  0.73949642  0.29931036  0.91754892    -0.28920
C220        C  0.73989408  0.29333466  0.89033892    -0.05020
C221        C  0.74537133  0.26551182  0.88744159     0.07190
C222        C  0.74771872  0.25544601  0.91406515     0.00990
H223        H  0.73713993  0.30823206  0.87392108     0.08640
H224        H  0.75175367  0.23438532  0.92018422     0.07720
N225        N  0.73048310  0.37262821  0.96021228    -0.36120
N226        N  0.72785593  0.37250886  0.98747584    -0.28300
C227        C  0.72610704  0.39867599  0.99654338    -0.03540
C228        C  0.72781772  0.41595156  0.97391976     0.05070
C229        C  0.73075744  0.39885239  0.95126313     0.03160
H230        H  0.72446916  0.40468485  0.01805258     0.08270
H231        H  0.73307568  0.40499950  0.92987712     0.07100
N232        N  0.73920534  0.65128773  0.91732529    -0.27280
N233        N  0.74015328  0.67459521  0.93145805    -0.35140
C234        C  0.74278604  0.69573292  0.91377280     0.01060
C235        C  0.74389444  0.68524043  0.88717191     0.07080
C236        C  0.74120289  0.65700444  0.89014561    -0.06020
H237        H  0.74365651  0.71713091  0.91995048     0.07750
H238        H  0.74134931  0.64172098  0.87382118     0.08950
Cu239      Cu  0.73925450  0.67672303  0.97414618     0.44170
Cu240      Cu  0.73617911  0.61305474  0.93621538     0.41990
Cu241      Cu  0.73141818  0.61327912  0.01187787     0.43880
N242        N  0.74041785  0.67433222  0.01681055    -0.34670
N243        N  0.73711813  0.65122342  0.03084923    -0.28920
C244        C  0.73950661  0.65670970  0.05806902    -0.05020
C245        C  0.74497802  0.68450926  0.06112332     0.07190
C246        C  0.74517542  0.69507670  0.03460038     0.00990
H247        H  0.73799893  0.64151735  0.07435877     0.08640
H248        H  0.74838998  0.71629258  0.02861323     0.07720
N249        N  0.73046517  0.57796531  0.98762518    -0.36120
N250        N  0.73295484  0.57786949  0.96034141    -0.28300
C251        C  0.73317773  0.55164606  0.95131150    -0.03540
C252        C  0.73059206  0.53453583  0.97395815     0.05070
C253        C  0.72877108  0.55180198  0.99661681     0.03160
H254        H  0.73513867  0.54550701  0.92986665     0.08270
H255        H  0.72701026  0.54579472  0.01809712     0.07100
N256        N  0.03150846  0.74237694  0.29864388    -0.27280
N257        N  0.01708612  0.74207699  0.27548162    -0.35140
C258        C  0.03417776  0.74417145  0.25382045     0.01060
C259        C  0.06084524  0.74667426  0.26368807     0.07080
C260        C  0.05835241  0.74502752  0.29229268    -0.06020
H261        H  0.02739812  0.74341767  0.23255330     0.07750
H262        H  0.07480833  0.74612871  0.30738002     0.08950
Cu263      Cu  0.97472156  0.74049610  0.27434326     0.44170
Cu264      Cu  0.01278103  0.73900108  0.33713589     0.41990
Cu265      Cu  0.93695938  0.72880063  0.33680309     0.43880
N266        N  0.93235595  0.73941164  0.27597390    -0.34670
N267        N  0.91808914  0.73382384  0.29842951    -0.28920
C268        C  0.89112784  0.73404660  0.29188739    -0.05020
C269        C  0.88819055  0.74024523  0.26382251     0.07190
C270        C  0.91508136  0.74393545  0.25481297     0.00990
H271        H  0.87490932  0.73016852  0.30665188     0.08640
H272        H  0.92222764  0.75031137  0.23479535     0.07720
N273        N  0.96159992  0.72969147  0.37211717    -0.36120
N274        N  0.98852654  0.73401729  0.37220072    -0.28300
C275        C  0.99747719  0.73487375  0.39855206    -0.03540
C276        C  0.97523252  0.73081068  0.41577785     0.05070
C277        C  0.95285002  0.72749937  0.39844377     0.03160
H278        H  0.01860016  0.73838960  0.40471036     0.08270
H279        H  0.93165875  0.72443381  0.40451745     0.07100
N280        N  0.03077064  0.74416545  0.65288648    -0.27280
N281        N  0.01618316  0.74207789  0.67576002    -0.35140
C282        C  0.03288497  0.74382533  0.69780658     0.01060
C283        C  0.05954032  0.74803559  0.68862488     0.07080
C284        C  0.05736375  0.74775586  0.65987042    -0.06020
H285        H  0.02573184  0.74169948  0.71878698     0.07750
H286        H  0.07385794  0.75035046  0.64509668     0.08950
Cu287      Cu  0.97404148  0.73915470  0.67627716     0.44170
Cu288      Cu  0.01256257  0.74139986  0.61393725     0.41990
Cu289      Cu  0.93676667  0.72947853  0.61350462     0.43880
N290        N  0.93181620  0.73867380  0.67443139    -0.34670
N291        N  0.91754415  0.73398660  0.65169035    -0.28920
C292        C  0.89055694  0.73478739  0.65799187    -0.05020
C293        C  0.88774686  0.74034967  0.68617998     0.07190
C294        C  0.91458759  0.74316304  0.69555508     0.00990
H295        H  0.87421758  0.73183576  0.64303428     0.08640
H296        H  0.92162901  0.74911354  0.71586329     0.07720
N297        N  0.96179229  0.73028982  0.57857658    -0.36120
N298        N  0.98859648  0.73534691  0.57864499    -0.28300
C299        C  0.99765850  0.73572101  0.55233782    -0.03540
C300        C  0.97566146  0.73034130  0.53503662     0.05070
C301        C  0.95326700  0.72709079  0.55225358     0.03160
H302        H  0.01870477  0.73965278  0.54626442     0.08270
H303        H  0.93219434  0.72331338  0.54607910     0.07100
N304        N  0.29994062  0.91773372  0.73750301    -0.27280
N305        N  0.27608260  0.93073150  0.73548795    -0.35140
C306        C  0.25561253  0.91217196  0.73672404     0.01060
C307        C  0.26727868  0.88635497  0.73961435     0.07080
C308        C  0.29535862  0.89055537  0.74014471    -0.06020
H309        H  0.23390200  0.91717231  0.73636008     0.07750
H310        H  0.31123660  0.87510723  0.74276432     0.08950
Cu311      Cu  0.27282130  0.97322226  0.73339256     0.44170
Cu312      Cu  0.33740223  0.93782153  0.73726468     0.41990
Cu313      Cu  0.33657972  0.01265675  0.73528943     0.43880
N314        N  0.27454012  0.01569681  0.73701793    -0.34670
N315        N  0.29755889  0.03010082  0.73836561    -0.28920
C316        C  0.29114776  0.05679150  0.74245286    -0.05020
C317        C  0.26274640  0.05926929  0.74401090     0.07190
C318        C  0.25295946  0.03278714  0.74000687     0.00990
H319        H  0.30608872  0.07315598  0.74458285     0.08640
H320        H  0.23178916  0.02620951  0.73882826     0.07720
N321        N  0.37233587  0.98905795  0.73378500    -0.36120
N322        N  0.37241639  0.96183575  0.73516113    -0.28300
C323        C  0.39853439  0.95270995  0.73486218    -0.03540
C324        C  0.41573689  0.97522593  0.73322265     0.05070
C325        C  0.39852551  0.99795790  0.73232877     0.03160
H326        H  0.40452170  0.93124231  0.73571123     0.08270
H327        H  0.40459657  0.01936742  0.73133549     0.07100
N328        N  0.65006272  0.03210394  0.73640218    -0.27280
N329        N  0.67379373  0.01890693  0.73477996    -0.35140
C330        C  0.69438045  0.03717105  0.73732861     0.01060
C331        C  0.68311209  0.06324541  0.74058929     0.07080
C332        C  0.65487454  0.05911421  0.74019826    -0.06020
H333        H  0.71600177  0.03177539  0.73740257     0.07750
H334        H  0.63887644  0.07416658  0.74376656     0.08950
Cu335      Cu  0.67680066  0.97643500  0.73239220     0.44170
Cu336      Cu  0.61241672  0.01234023  0.73466245     0.41990
Cu337      Cu  0.61343637  0.93774577  0.74125841     0.43880
N338        N  0.67529747  0.93419520  0.73790545    -0.34670
N339        N  0.65248247  0.92015986  0.74237014    -0.28920
C340        C  0.65914432  0.89367005  0.74717734    -0.05020
C341        C  0.68757125  0.89086410  0.74584643     0.07190
C342        C  0.69697240  0.91704300  0.73945310     0.00990
H343        H  0.64435647  0.87766082  0.75162750     0.08640
H344        H  0.71783731  0.92345397  0.73565885     0.07720
N345        N  0.57771292  0.96089103  0.73624335    -0.36120
N346        N  0.57756804  0.98796276  0.73309951    -0.28300
C347        C  0.55148493  0.99666893  0.72983270    -0.03540
C348        C  0.53438255  0.97401817  0.73094942     0.05070
C349        C  0.55161184  0.95170175  0.73534361     0.03160
H350        H  0.54539177  0.01802160  0.72775740     0.08270
H351        H  0.54560475  0.93039811  0.73784040     0.07100
C352        C  0.75635424  0.74620541  0.78555056     0.03140
C353        C  0.77829224  0.74037145  0.76771355    -0.13010
C354        C  0.78574787  0.75899680  0.74674169     0.00640
C355        C  0.77056421  0.78351526  0.74386244    -0.11540
C356        C  0.74741960  0.78855137  0.76044070     0.03250
C357        C  0.74051613  0.76998407  0.78145848    -0.10960
H358        H  0.79033021  0.72183993  0.77106482     0.08720
H359        H  0.77716149  0.79923771  0.72951893     0.06250
H360        H  0.72372918  0.77472392  0.79543609     0.06100
C361        C  0.69177486  0.84004190  0.74119434    -0.20300
C362        C  0.70372355  0.86503114  0.74979889    -0.06870
C363        C  0.72997195  0.86437072  0.76284529     0.14000
C364        C  0.74363070  0.83904402  0.76604072    -0.20350
C365        C  0.73170996  0.81439241  0.75708099    -0.06870
C366        C  0.70540518  0.81476198  0.74477749     0.13990
C367        C  0.69194093  0.78853373  0.73504184    -0.23700
H368        H  0.67172738  0.84026165  0.73133929     0.15280
H369        H  0.76377584  0.83838087  0.77572340     0.15310
C370        C  0.74353593  0.88974609  0.77455607    -0.23650
H371        H  0.67155118  0.79253150  0.72539813     0.05520
H372        H  0.68881501  0.77445352  0.75284202     0.08740
H373        H  0.70522476  0.77822463  0.71946070     0.08740
H374        H  0.72882616  0.90134610  0.78774241     0.08730
H375        H  0.75132494  0.90287745  0.75759093     0.08730
H376        H  0.76160077  0.88441819  0.78764447     0.05500
C377        C  0.45984571  0.98489038  0.70959099    -0.20300
C378        C  0.44607745  0.97492053  0.73298182    -0.06870
C379        C  0.46139526  0.96456123  0.75558657     0.14000
C380        C  0.49022352  0.96412683  0.75411973    -0.20350
C381        C  0.50402331  0.97413418  0.73077758    -0.06870
C382        C  0.48871781  0.98446912  0.70813490     0.13990
C383        C  0.50270526  0.99410737  0.68209355    -0.23700
H384        H  0.44792520  0.99262973  0.69226061     0.15280
H385        H  0.50210897  0.95642463  0.77148761     0.15310
C386        C  0.44746054  0.95490498  0.78165771    -0.23650
H387        H  0.48756566  0.00030599  0.66599405     0.05520
H388        H  0.51557969  0.97720818  0.67350093     0.08740
H389        H  0.51587790  0.01218403  0.68662477     0.08740
H390        H  0.43432015  0.93679671  0.77715026     0.08730
H391        H  0.43457270  0.97178328  0.79027100     0.08730
H392        H  0.46262266  0.94873034  0.79774170     0.05500
C393        C  0.83774185  0.75222348  0.68764349    -0.20300
C394        C  0.86166887  0.74428631  0.70210468    -0.06870
C395        C  0.85973869  0.73982107  0.73110507     0.14000
C396        C  0.83498021  0.74562358  0.74475130    -0.20350
C397        C  0.81130432  0.75408740  0.73040663    -0.06870
C398        C  0.81250728  0.75653336  0.70122333     0.13990
C399        C  0.78718560  0.76210914  0.68395132    -0.23700
H400        H  0.83864035  0.75512535  0.66545396     0.15280
H401        H  0.83412656  0.74338760  0.76705720     0.15310
C402        C  0.88277325  0.72765980  0.74816193    -0.23650
H403        H  0.79143941  0.75962498  0.66150541     0.05520
H404        H  0.77980535  0.78348562  0.68694307     0.08740
H405        H  0.77066684  0.74736083  0.68950392     0.08740
H406        H  0.89802544  0.74377793  0.75340129     0.08730
H407        H  0.89251719  0.71013055  0.73707224     0.08730
H408        H  0.87508487  0.71943379  0.76814797     0.05500
C409        C  0.97912758  0.75490264  0.49036615    -0.20300
C410        C  0.97567541  0.72998010  0.50454041    -0.06870
C411        C  0.97206805  0.70529052  0.48949502     0.14000
C412        C  0.97178199  0.70612722  0.46043512    -0.20350
C413        C  0.97524432  0.73105677  0.44626988    -0.06870
C414        C  0.97879835  0.75575133  0.46132393     0.13990
C415        C  0.98155451  0.78302990  0.44676544    -0.23700
H416        H  0.98173518  0.77378045  0.50209410     0.15280
H417        H  0.96915897  0.68725652  0.44869964     0.15310
C418        C  0.96920773  0.67805033  0.50408974    -0.23650
H419        H  0.98345469  0.80036960  0.46167155     0.05520
H420        H  0.96309606  0.78679485  0.43369182     0.08740
H421        H  0.00016899  0.78290095  0.43350258     0.08740
H422        H  0.95061112  0.67829506  0.51737958     0.08730
H423        H  0.98766228  0.67422625  0.51715107     0.08730
H424        H  0.96721334  0.66070251  0.48920486     0.05500
C425        C  0.72917382  0.69601451  0.83915354    -0.20300
C426        C  0.74757317  0.70074486  0.86112691    -0.06870
C427        C  0.76939237  0.71968614  0.85761023     0.14000
C428        C  0.77173409  0.73393033  0.83252592    -0.20350
C429        C  0.75288040  0.72979764  0.81096524    -0.06870
C430        C  0.73148983  0.71051760  0.81410729     0.13990
C431        C  0.71142968  0.70510565  0.79095801    -0.23700
H432        H  0.71271920  0.68120788  0.84175937     0.15280
H433        H  0.78831029  0.74857919  0.82970182     0.15310
C434        C  0.79092773  0.72425949  0.87965661    -0.23650
H435        H  0.69616124  0.68910939  0.79667896     0.05520
H436        H  0.72272543  0.69787184  0.77234477     0.08740
H437        H  0.70008562  0.72431787  0.78583386     0.08740
H438        H  0.80036079  0.70427156  0.88563665     0.08730
H439        H  0.78164999  0.73422362  0.89805068     0.08730
H440        H  0.80765921  0.73796728  0.87230373     0.05500
C441        C  0.75278261  0.45985403  0.96782014    -0.20300
C442        C  0.72814134  0.44627882  0.97406178    -0.06870
C443        C  0.70429852  0.46174589  0.98025444     0.14000
C444        C  0.70570094  0.49063132  0.98029726    -0.20350
C445        C  0.73032366  0.50420795  0.97400511    -0.06870
C446        C  0.75419578  0.48873578  0.96787721     0.13990
C447        C  0.78126260  0.50266460  0.96213945    -0.23700
H448        H  0.77101683  0.44778609  0.96320592     0.15280
H449        H  0.68746644  0.50269549  0.98490522     0.15310
C450        C  0.67727154  0.44778700  0.98606292    -0.23650
H451        H  0.79801509  0.48747008  0.95853431     0.05520
H452        H  0.78716267  0.51569144  0.98010922     0.08740
H453        H  0.77944788  0.51576641  0.94342556     0.08740
H454        H  0.67920031  0.43460690  0.00471349     0.08730
H455        H  0.67130025  0.43482138  0.96807184     0.08730
H456        H  0.66053179  0.46296022  0.98980485     0.05500
C457        C  0.77583592  0.22085714  0.83084732    -0.20300
C458        C  0.75378144  0.21929888  0.81212286    -0.06870
C459        C  0.72918539  0.23387595  0.81777205     0.14000
C460        C  0.72710449  0.24915404  0.84241919    -0.20350
C461        C  0.74891246  0.24995212  0.86147130    -0.06870
C462        C  0.77375034  0.23604822  0.85542079     0.13990
C463        C  0.79843515  0.23794103  0.87428835    -0.23700
H464        H  0.79478496  0.20994612  0.82623583     0.15280
H465        H  0.70827684  0.26026704  0.84703231     0.15310
C466        C  0.70550951  0.23409743  0.79757050    -0.23650
H467        H  0.81659931  0.22713535  0.86547404     0.05520
H468        H  0.79384265  0.22832720  0.89454371     0.08740
H469        H  0.80405210  0.25989187  0.87745137     0.08740
H470        H  0.69690879  0.21309443  0.79519955     0.08730
H471        H  0.71266948  0.24163748  0.77713937     0.08730
H472        H  0.68857527  0.24779420  0.80465679     0.05500
C473        C  0.70748702  0.13798426  0.73869814    -0.20300
C474        C  0.73090816  0.13639826  0.75551042    -0.06870
C475        C  0.73842278  0.11108769  0.76761336     0.14000
C476        C  0.72215328  0.08776077  0.76266430    -0.20350
C477        C  0.69850784  0.08913722  0.74586043    -0.06870
C478        C  0.69116007  0.11467345  0.73359416     0.13990
C479        C  0.66702666  0.11750179  0.71415468    -0.23700
H480        H  0.70210568  0.15758034  0.72937001     0.15280
H481        H  0.72792484  0.06832175  0.77206729     0.15310
C482        C  0.76366543  0.10874001  0.78563128    -0.23650
H483        H  0.66647086  0.13810947  0.70419134     0.05520
H484        H  0.64748103  0.11522817  0.72565257     0.08740
H485        H  0.66838934  0.10180668  0.69747319     0.08740
H486        H  0.76171832  0.12277788  0.80368846     0.08730
H487        H  0.78220859  0.11445801  0.77355454     0.08730
H488        H  0.76661218  0.08743976  0.79349877     0.05500
C489        C  0.83786637  0.19963891  0.68860567    -0.20300
C490        C  0.86304210  0.20045221  0.70327469    -0.06870
C491        C  0.86199179  0.19931574  0.73277208     0.14000
C492        C  0.83652874  0.19614674  0.74601988    -0.20350
C493        C  0.81184297  0.19465561  0.73117234    -0.06870
C494        C  0.81240152  0.19718385  0.70212314     0.13990
C495        C  0.78620837  0.19845784  0.68535709    -0.23700
H496        H  0.83781690  0.20076052  0.66626581     0.15280
H497        H  0.83584687  0.19446021  0.76839687     0.15310
C498        C  0.88693245  0.20171345  0.75117465    -0.23650
H499        H  0.79039139  0.20245362  0.66313307     0.05520
H500        H  0.77291740  0.21539247  0.69319992     0.08740
H501        H  0.77492691  0.17870393  0.68666195     0.08740
H502        H  0.89928896  0.22000002  0.74533991     0.08730
H503        H  0.89913449  0.18241249  0.75017249     0.08730
H504        H  0.88120335  0.20444119  0.77326475     0.05500
C505        C  0.97448787  0.19465667  0.46060161    -0.20300
C506        C  0.97492700  0.21949181  0.44587349    -0.06870
C507        C  0.97497060  0.24480027  0.46026740     0.14000
C508        C  0.97466586  0.24471390  0.48932234    -0.20350
C509        C  0.97417961  0.21987414  0.50405423    -0.06870
C510        C  0.97409053  0.19456316  0.48964276     0.13990
C511        C  0.97368774  0.16754505  0.50492736    -0.23700
H512        H  0.97441998  0.17532973  0.44932069     0.15280
H513        H  0.97477158  0.26403964  0.50059928     0.15310
C514        C  0.97535047  0.27178833  0.44493791    -0.23650
H515        H  0.97375098  0.14970512  0.49049451     0.05520
H516        H  0.95487241  0.16629730  0.51786121     0.08740
H517        H  0.99212631  0.16593291  0.51844624     0.08740
H518        H  0.95686075  0.27339996  0.43148814     0.08730
H519        H  0.99411367  0.27297313  0.43191723     0.08730
H520        H  0.97536803  0.28964802  0.45934366     0.05500
C521        C  0.24346400  0.84550685  0.72059261    -0.20300
C522        C  0.25273485  0.86016594  0.74375712    -0.06870
C523        C  0.24807624  0.84970105  0.77049211     0.14000
C524        C  0.23308048  0.82528491  0.77353546    -0.20350
C525        C  0.22333501  0.81050332  0.75041981    -0.06870
C526        C  0.22952896  0.82036719  0.72349909     0.13990
C527        C  0.22288543  0.80459547  0.69744496    -0.23700
H528        H  0.24770442  0.85341854  0.70006170     0.15280
H529        H  0.22834725  0.81810131  0.79419811     0.15310
C530        C  0.25851217  0.86455888  0.79581884    -0.23650
H531        H  0.24181896  0.80228070  0.68481085     0.05520
H532        H  0.20725332  0.81605133  0.68519106     0.08740
H533        H  0.21531582  0.78351948  0.70158145     0.08740
H534        H  0.24954518  0.88559859  0.79669268     0.08730
H535        H  0.28129638  0.86607202  0.79497973     0.08730
H536        H  0.25292467  0.85361004  0.81517969     0.05500
C537        C  0.11088539  0.76887362  0.74524244    -0.20300
C538        C  0.13549194  0.75927421  0.73380276    -0.06870
C539        C  0.13519239  0.74587292  0.70791539     0.14000
C540        C  0.11007109  0.74221942  0.69403883    -0.20350
C541        C  0.08512374  0.75177030  0.70532012    -0.06870
C542        C  0.08567882  0.76552566  0.73137245     0.13990
C543        C  0.06036829  0.77773777  0.74461193    -0.23700
H544        H  0.11149266  0.77918379  0.76516031     0.15280
H545        H  0.10996795  0.73165053  0.67427448     0.15310
C546        C  0.16136731  0.73518407  0.69507573    -0.23650
H547        H  0.06570763  0.79127856  0.76237391     0.05520
H548        H  0.04722928  0.76113171  0.75301828     0.08740
H549        H  0.04885896  0.79050445  0.72943987     0.08740
H550        H  0.17132847  0.72013637  0.70921784     0.08730
H551        H  0.17567254  0.75254318  0.69126244     0.08730
H552        H  0.15744043  0.72474278  0.67498720     0.05500
C553        C  0.21003365  0.72611662  0.86009605    -0.20300
C554        C  0.20255403  0.69816497  0.85969642    -0.06870
C555        C  0.19218024  0.68680458  0.83469168     0.14000
C556        C  0.19052491  0.70343247  0.81094824    -0.20350
C557        C  0.19769241  0.73146138  0.81150781    -0.06870
C558        C  0.20715234  0.74304584  0.83676397     0.13990
C559        C  0.21258729  0.77348723  0.84023378    -0.23700
H560        H  0.21789518  0.73508978  0.87905287     0.15280
H561        H  0.18299283  0.69454248  0.79179221     0.15310
C562        C  0.18130043  0.65781259  0.83279418    -0.23650
H563        H  0.21517293  0.77920528  0.86235471     0.05520
H564        H  0.19502309  0.78566834  0.83200820     0.08740
H565        H  0.23190278  0.77937628  0.82970602     0.08740
H566        H  0.16653775  0.65386430  0.84984720     0.08730
H567        H  0.19854054  0.64287780  0.83340035     0.08730
H568        H  0.17018998  0.65419937  0.81300453     0.05500
C569        C  0.23419303  0.49101413  0.95606667    -0.20300
C570        C  0.22047599  0.50452583  0.97779939    -0.06870
C571        C  0.20597033  0.48856497  0.99747999     0.14000
C572        C  0.20572420  0.45976138  0.99482221    -0.20350
C573        C  0.21931312  0.44631270  0.97302290    -0.06870
C574        C  0.23387587  0.46220034  0.95340252     0.13990
C575        C  0.24997235  0.44912400  0.93018270    -0.23700
H576        H  0.24540248  0.50313776  0.94103305     0.15280
H577        H  0.19452985  0.44758074  0.00982450     0.15310
C578        C  0.18977381  0.50140748  0.02076055    -0.23650
H579        H  0.26219485  0.46458542  0.91859190     0.05520
H580        H  0.23579805  0.43935459  0.91513930     0.08740
H581        H  0.26449796  0.43354799  0.93860488     0.08740
H582        H  0.17548600  0.51729967  0.01252822     0.08730
H583        H  0.20393982  0.51056347  0.03619796     0.08730
H584        H  0.17722300  0.48589339  0.03191663     0.05500
C585        C  0.83498887  0.74640148  0.20520975    -0.20300
C586        C  0.81071735  0.75160006  0.21998995    -0.06870
C587        C  0.81171949  0.75150824  0.24924658     0.14000
C588        C  0.83725481  0.74813353  0.26266297    -0.20350
C589        C  0.86185038  0.74356127  0.24784697    -0.06870
C590        C  0.86020564  0.74158710  0.21849079     0.13990
C591        C  0.88414803  0.73350110  0.20039437    -0.23700
H592        H  0.83425866  0.74617301  0.18277709     0.15280
H593        H  0.83779320  0.74912603  0.28502217     0.15310
C594        C  0.78598115  0.75335953  0.26658064    -0.23650
H595        H  0.87724839  0.72729055  0.17935548     0.05520
H596        H  0.89517843  0.71550266  0.20928087     0.08740
H597        H  0.89801086  0.75134910  0.19750070     0.08740
H598        H  0.77088564  0.73769350  0.25953735     0.08730
H599        H  0.77667224  0.77413950  0.26530750     0.08730
H600        H  0.79040404  0.74942033  0.28879099     0.05500
C601        C  0.77612578  0.72982566  0.11701703    -0.20300
C602        C  0.75486846  0.73016885  0.13659161    -0.06870
C603        C  0.73085171  0.71453772  0.13183959     0.14000
C604        C  0.72838117  0.69938501  0.10718666    -0.20350
C605        C  0.74923416  0.69982108  0.08716699    -0.06870
C606        C  0.77359882  0.71486809  0.09228529     0.13990
C607        C  0.79731381  0.71449546  0.07221704    -0.23700
H608        H  0.79469560  0.74151777  0.12106919     0.15280
H609        H  0.70991062  0.68750021  0.10328447     0.15310
C610        C  0.70811929  0.71341850  0.15294903    -0.23650
H611        H  0.81528474  0.72611782  0.08031549     0.05520
H612        H  0.79111467  0.72411899  0.05236730     0.08740
H613        H  0.80397349  0.69291307  0.06843143     0.08740
H614        H  0.69924477  0.73425067  0.15602791     0.08730
H615        H  0.71638840  0.70571766  0.17294043     0.08730
H616        H  0.69123052  0.69950361  0.14629946     0.05500
C617        C  0.68856900  0.83980946  0.19501520    -0.20300
C618        C  0.70272437  0.86374118  0.20295770    -0.06870
C619        C  0.73139887  0.86199858  0.20804528     0.14000
C620        C  0.74532709  0.83723304  0.20256294    -0.20350
C621        C  0.73136180  0.81339202  0.19384296    -0.06870
C622        C  0.70227846  0.81459817  0.19095003     0.13990
C623        C  0.68508814  0.78942160  0.18496318    -0.23700
H624        H  0.66651280  0.84080615  0.19179025     0.15280
H625        H  0.76746209  0.83658932  0.20520865     0.15310
C626        C  0.74742867  0.88534681  0.22087623    -0.23650
H627        H  0.66288740  0.79341073  0.18874475     0.05520
H628        H  0.69140743  0.77215425  0.19863403     0.08740
H629        H  0.68692924  0.78336206  0.16295644     0.08740
H630        H  0.73639669  0.89341584  0.23931495     0.08730
H631        H  0.75076095  0.90196716  0.20563697     0.08730
H632        H  0.76812782  0.87847743  0.22788455     0.05500
C633        C  0.46027516  0.95774929  0.20261821    -0.20300
C634        C  0.44624214  0.97740724  0.21862526    -0.06870
C635        C  0.46156070  0.99549165  0.23571083     0.14000
C636        C  0.49041872  0.99353811  0.23603001    -0.20350
C637        C  0.50444869  0.97386320  0.22001712    -0.06870
C638        C  0.48910346  0.95577602  0.20293870     0.13990
C639        C  0.50274005  0.93511716  0.18405916    -0.23700
H640        H  0.44854994  0.94396798  0.18946186     0.15280
H641        H  0.50216798  0.00737356  0.24910685     0.15310
C642        C  0.44782444  0.01615020  0.25450707    -0.23650
H643        H  0.48761192  0.92489516  0.17019168     0.05520
H644        H  0.51273868  0.91867194  0.19637743     0.08740
H645        H  0.51816239  0.94555274  0.17081218     0.08740
H646        H  0.43251790  0.00565623  0.26784548     0.08730
H647        H  0.43761259  0.03241999  0.24212734     0.08730
H648        H  0.46292355  0.02656533  0.26825850     0.05500
C649        C  0.19231956  0.20474548  0.83576792    -0.20300
C650        C  0.19759717  0.21852138  0.81096451    -0.06870
C651        C  0.20598143  0.24625306  0.81167176     0.14000
C652        C  0.20900570  0.25951058  0.83739178    -0.20350
C653        C  0.20346608  0.24592462  0.86260352    -0.06870
C654        C  0.19495220  0.21785913  0.86151287     0.13990
C655        C  0.18786227  0.20115148  0.88675593    -0.23700
H656        H  0.18577330  0.18340948  0.83487051     0.15280
H657        H  0.21588756  0.28069409  0.83762875     0.15310
C658        C  0.21227484  0.26170016  0.78541643    -0.23650
H659        H  0.17831142  0.18111030  0.88120089     0.05520
H660        H  0.17279051  0.21239314  0.89982102     0.08740
H661        H  0.20689757  0.19608171  0.89837898     0.08740
H662        H  0.19353455  0.26323411  0.77235423     0.08730
H663        H  0.22864876  0.25076187  0.77373181     0.08730
H664        H  0.21949451  0.28297410  0.78974705     0.05500
C665        C  0.25549746  0.10902150  0.73469094    -0.20300
C666        C  0.24670453  0.08500649  0.74827014    -0.06870
C667        C  0.22362198  0.08648314  0.76619014     0.14000
C668        C  0.20955852  0.11161100  0.76920839    -0.20350
C669        C  0.21809267  0.13523318  0.75511950    -0.06870
C670        C  0.24144154  0.13411569  0.73792950     0.13990
C671        C  0.25143297  0.15942915  0.72305111    -0.23700
H672        H  0.27330972  0.10809713  0.72125244     0.15280
H673        H  0.19181188  0.11293183  0.78272347     0.15310
C674        C  0.21429570  0.06226839  0.78324600    -0.23650
H675        H  0.26999656  0.15502796  0.71039838     0.05520
H676        H  0.25677581  0.17566962  0.73834906     0.08740
H677        H  0.23502383  0.16727478  0.70908615     0.08740
H678        H  0.23195935  0.05350593  0.79492466     0.08730
H679        H  0.20497815  0.04634100  0.76978576     0.08730
H680        H  0.19832723  0.06834843  0.79852148     0.05500
C681        C  0.11189489  0.19694820  0.68668494    -0.20300
C682        C  0.08782199  0.20408531  0.70116055    -0.06870
C683        C  0.08965155  0.20893595  0.73006460     0.14000
C684        C  0.11461903  0.20400898  0.74381069    -0.20350
C685        C  0.13843406  0.19583230  0.72953043    -0.06870
C686        C  0.13724263  0.19332000  0.70031321     0.13990
C687        C  0.16264178  0.18834682  0.68304558    -0.23700
H688        H  0.11092674  0.19398975  0.66447978     0.15280
H689        H  0.11544272  0.20646727  0.76609578     0.15310
C690        C  0.06613260  0.22067725  0.74669180    -0.23650
H691        H  0.15830139  0.19097766  0.66062289     0.05520
H692        H  0.17041892  0.16707612  0.68573725     0.08740
H693        H  0.17890649  0.20332920  0.68882191     0.08740
H694        H  0.05074885  0.20450692  0.75109729     0.08730
H695        H  0.05652615  0.23823903  0.73552910     0.08730
H696        H  0.07327429  0.22860884  0.76705298     0.05500
C697        C  0.86167079  0.18425161  0.22786627    -0.20300
C698        C  0.86172838  0.20384076  0.24930595    -0.06870
C699        C  0.83744019  0.21914024  0.25477586     0.14000
C700        C  0.81371891  0.21411414  0.23889822    -0.20350
C701        C  0.81377481  0.19435070  0.21778002    -0.06870
C702        C  0.83794734  0.17929021  0.21208790     0.13990
C703        C  0.83865914  0.15806052  0.18930598    -0.23700
H704        H  0.88025000  0.17261760  0.22355743     0.15280
H705        H  0.79504980  0.22574804  0.24282166     0.15310
C706        C  0.83658020  0.24159844  0.27633433    -0.23650
H707        H  0.85920255  0.14811871  0.18759724     0.05520
H708        H  0.83382449  0.16798126  0.16917503     0.08740
H709        H  0.82323550  0.14175531  0.19350086     0.08740
H710        H  0.85334909  0.25662374  0.27256283     0.08730
H711        H  0.83872052  0.23267746  0.29730678     0.08730
H712        H  0.81674307  0.25301870  0.27584737     0.05500
C713        C  0.74351320  0.22182498  0.08652715    -0.20300
C714        C  0.74764306  0.25048926  0.08790489    -0.06870
C715        C  0.75677332  0.26209008  0.11327694     0.14000
C716        C  0.76034217  0.24495270  0.13640967    -0.20350
C717        C  0.75658209  0.21628645  0.13484487    -0.06870
C718        C  0.74896150  0.20451141  0.10910783     0.13990
C719        C  0.74808426  0.17386510  0.10384089    -0.23700
H720        H  0.73691926  0.21249450  0.06724531     0.15280
H721        H  0.76630203  0.25409995  0.15599842     0.15310
C722        C  0.76403219  0.29211247  0.11632714    -0.23650
H723        H  0.76054144  0.16890253  0.08523045     0.05520
H724        H  0.72650634  0.16735759  0.10004632     0.08740
H725        H  0.75693582  0.16152066  0.12092238     0.08740
H726        H  0.74509403  0.30483590  0.11614247     0.08730
H727        H  0.77826347  0.29846779  0.09956268     0.08730
H728        H  0.77455500  0.29632111  0.13632221     0.05500
C729        C  0.68684671  0.11296803  0.19849229    -0.20300
C730        C  0.70102731  0.08814388  0.20360032    -0.06870
C731        C  0.72989087  0.08924523  0.20813878     0.14000
C732        C  0.74371625  0.11435115  0.20498352    -0.20350
C733        C  0.72968648  0.13893637  0.19885862    -0.06870
C734        C  0.70060913  0.13835748  0.19690941     0.13990
C735        C  0.68326706  0.16402588  0.19427757    -0.23700
H736        H  0.66470062  0.11273643  0.19585563     0.15280
H737        H  0.76596220  0.11456314  0.20671813     0.15310
C738        C  0.74664472  0.06463821  0.21715499    -0.23650
H739        H  0.66767492  0.16439989  0.21105522     0.05520
H740        H  0.67247999  0.16401196  0.17399794     0.08740
H741        H  0.69538071  0.18322410  0.19631765     0.08740
H742        H  0.75074783  0.05097540  0.19925790     0.08730
H743        H  0.73595258  0.05337915  0.23396641     0.08730
H744        H  0.76704883  0.07092106  0.22542229     0.05500
C745        C  0.24482229  0.81085163  0.20756640    -0.20300
C746        C  0.21874092  0.81324438  0.19549310    -0.06870
C747        C  0.20895206  0.83934574  0.18732450     0.14000
C748        C  0.22556377  0.86258483  0.19146113    -0.20350
C749        C  0.25178740  0.86054061  0.20377746    -0.06870
C750        C  0.26148896  0.83410566  0.21200152     0.13990
C751        C  0.28876274  0.82991803  0.22628779    -0.23700
H752        H  0.25207643  0.79061393  0.21371186     0.15280
H753        H  0.21795941  0.88250778  0.18482684     0.15310
C754        C  0.18108032  0.84263564  0.17393861    -0.23650
H755        H  0.29091410  0.80864358  0.23448126     0.05520
H756        H  0.29076843  0.84430424  0.24405258     0.08740
H757        H  0.30578213  0.83287919  0.21138505     0.08740
H758        H  0.16475330  0.83580994  0.18840991     0.08730
H759        H  0.18008390  0.83002261  0.15477387     0.08730
H760        H  0.17680299  0.86441123  0.16830793     0.05500
C761        C  0.11328236  0.77046241  0.21001741    -0.20300
C762        C  0.13688361  0.75651847  0.21893134    -0.06870
C763        C  0.13572403  0.73966526  0.24259518     0.14000
C764        C  0.11060613  0.73674554  0.25665505    -0.20350
C765        C  0.08660600  0.75029021  0.24751605    -0.06870
C766        C  0.08815411  0.76773297  0.22397718     0.13990
C767        C  0.06404039  0.78459670  0.21390273    -0.23700
H768        H  0.11461117  0.78362506  0.19195066     0.15280
H769        H  0.10967306  0.72363449  0.27476515     0.15310
C770        C  0.16101898  0.72494232  0.25297905    -0.23650
H771        H  0.07035329  0.79985865  0.19803687     0.05520
H772        H  0.05473610  0.79619886  0.23136519     0.08740
H773        H  0.04856279  0.77110829  0.20395510     0.08740
H774        H  0.17722261  0.74021501  0.25816141     0.08730
H775        H  0.16886262  0.71077112  0.23673581     0.08730
H776        H  0.15663851  0.71265063  0.27183026     0.05500
C777        C  0.22080423  0.70050143  0.10834245    -0.20300
C778        C  0.20093495  0.70280149  0.08731135    -0.06870
C779        C  0.17711237  0.71900524  0.09194387     0.14000
C780        C  0.17431079  0.73324163  0.11706761    -0.20350
C781        C  0.19461267  0.73169221  0.13765860    -0.06870
C782        C  0.21798144  0.71485771  0.13346084     0.13990
C783        C  0.23953083  0.71145896  0.15567299    -0.23700
H784        H  0.23875995  0.68763644  0.10496130     0.15280
H785        H  0.15624291  0.74590666  0.12063405     0.15310
C786        C  0.15401714  0.72055135  0.07110581    -0.23650
H787        H  0.25585578  0.69668889  0.14935100     0.05520
H788        H  0.22981932  0.70355840  0.17486463     0.08740
H789        H  0.24951332  0.73151298  0.16010705     0.08740
H790        H  0.14693138  0.69946472  0.06576913     0.08730
H791        H  0.16093827  0.73130453  0.05217065     0.08730
H792        H  0.13607706  0.73218669  0.07930637     0.05500
C793        C  0.18939309  0.24585684  0.13750920    -0.20300
C794        C  0.19788857  0.21807946  0.13748365    -0.06870
C795        C  0.20943292  0.20711310  0.11275969     0.14000
C796        C  0.21289757  0.22434980  0.08973073    -0.20350
C797        C  0.20385672  0.25185432  0.08964325    -0.06870
C798        C  0.19125158  0.26251564  0.11382082     0.13990
C799        C  0.17803620  0.29063924  0.11466424    -0.23700
H800        H  0.18057659  0.25459216  0.15614784     0.15280
H801        H  0.22241698  0.21592878  0.07129402     0.15310
C802        C  0.21658050  0.17701611  0.10917691    -0.23650
H803        H  0.16553057  0.29356972  0.13367415     0.05520
H804        H  0.16403033  0.29330911  0.09665669     0.08740
H805        H  0.19401050  0.30683614  0.11486769     0.08740
H806        H  0.20005547  0.16379629  0.11772311     0.08730
H807        H  0.23665549  0.17231889  0.11904135     0.08730
H808        H  0.21877762  0.17146067  0.08697667     0.05500
C809        C  0.20663776  0.11239268  0.18869836    -0.20300
C810        C  0.21855928  0.13690596  0.19810395    -0.06870
C811        C  0.24455941  0.13618899  0.21101023     0.14000
C812        C  0.25794137  0.11069911  0.21448700    -0.20350
C813        C  0.24599054  0.08589404  0.20523002    -0.06870
C814        C  0.21995950  0.08692988  0.19184586     0.13990
C815        C  0.20631772  0.06183039  0.17961886    -0.23700
H816        H  0.18674104  0.11330300  0.17850935     0.15280
H817        H  0.27784569  0.11016171  0.22463270     0.15310
C818        C  0.25793699  0.16217194  0.22143586    -0.23650
H819        H  0.18831319  0.06745032  0.16656549     0.05520
H820        H  0.19841953  0.04843345  0.19632191     0.08740
H821        H  0.22102038  0.05040566  0.16627574     0.08740
H822        H  0.24431670  0.17235548  0.23680018     0.08730
H823        H  0.26163645  0.17647251  0.20394232     0.08730
H824        H  0.27803819  0.15787516  0.23155968     0.05500
C825        C  0.13618617  0.20984973  0.23916526    -0.20300
C826        C  0.13495170  0.19302018  0.21565973    -0.06870
C827        C  0.10983478  0.18077885  0.20796696     0.14000
C828        C  0.08641529  0.18536890  0.22430904    -0.20350
C829        C  0.08752339  0.20191523  0.24823743    -0.06870
C830        C  0.11280253  0.21461443  0.25555064     0.13990
C831        C  0.11532531  0.23406267  0.27976703    -0.23700
H832        H  0.15564146  0.21929133  0.24470116     0.15280
H833        H  0.06716795  0.17570701  0.21848494     0.15310
C834        C  0.10785560  0.16280420  0.18260244    -0.23650
H835        H  0.13563214  0.24453156  0.28008706     0.05520
H836        H  0.11359947  0.22259625  0.29946895     0.08740
H837        H  0.09919171  0.25025335  0.27853301     0.08740
H838        H  0.12207758  0.14497941  0.18466159     0.08730
H839        H  0.11354756  0.17488144  0.16397971     0.08730
H840        H  0.08668651  0.15475424  0.17953126     0.05500
loop_ 
_geom_bond_atom_site_label_1 
_geom_bond_atom_site_label_2 
_geom_bond_distance 
_geom_bond_site_symmetry_2 
_ccdc_geom_bond_type 
C1            C2   1.399       .  A
C1            C6   1.402       .  A
C1          C810   1.477       .  S
C2            C3   1.396       .  A
C2            H7   1.085       .  S
C3            C4   1.401       .  A
C3          C826   1.475       .  S
C4            C5   1.412       .  A
C4            H8   1.083       .  S
C5            C6   1.410       .  A
C5          C794   1.502       .  S
C6            H9   1.080       .  S
C10          C11   1.402       .  A
C10          C15   1.402       .  A
C10         C746   1.476       .  S
C11          C12   1.403       .  A
C11          H16   1.084       .  S
C12          C13   1.403       .  A
C12         C781   1.479       .  S
C13          C14   1.401       .  A
C13          H17   1.084       .  S
C14          C15   1.401       .  A
C14         C762   1.474       .  S
C15          H18   1.084       .  S
C19          C20   1.398       .  A
C19          C24   1.397       .  A
C19         C701   1.473       .  S
C20          C21   1.406       .  A
C20          H25   1.084       .  S
C21          C22   1.408       .  A
C21         C733   1.492       .  S
C22          C23   1.409       .  A
C22          H26   1.082       .  S
C23          C24   1.405       .  A
C23         C717   1.491       .  S
C24          H27   1.084       .  S
C28          C29   1.403       .  A
C28          C33   1.401       .  A
C28         C650   1.479       .  S
C29          C30   1.409       .  A
C29          H34   1.083       .  S
C30          C31   1.406       .  A
C30         C685   1.492       .  S
C31          C32   1.400       .  A
C31          H35   1.081       .  S
C32          C33   1.398       .  A
C32         C669   1.474       .  S
C33          H36   1.084       .  S
N37          N38   1.320       .  A
N37          C41   1.345       .  A
N37         Cu45   2.073       .  S
N38          C39   1.344       .  A
N38         Cu44   2.076       .  S
C39          C40   1.390       .  A
C39          H42   1.082       .  S
C40          C41   1.390       .  A
C40         C749   1.494       .  S
C41          H43   1.078       .  S
Cu44         N47   2.077   1_565  S
Cu45         N55   2.073       .  S
Cu46         N48   2.074       .  S
Cu46         N54   2.074   1_545  S
N47          N48   1.321       .  A
N47          C51   1.344       .  A
N48          C49   1.345       .  A
C49          C50   1.387       .  A
C49          H52   1.082       .  S
C50          C51   1.389       .  A
C50         C813   1.490       .  S
C51          H53   1.077       .  S
N54          N55   1.321       .  A
N54          C58   1.345       .  A
N55          C56   1.344       .  A
C56          C57   1.385       .  A
C56          H59   1.082       .  S
C57          C58   1.387       .  A
C57         C634   1.484       .  S
C58          H60   1.080   1_565  S
N61          N62   1.319       .  A
N61          C65   1.347       .  A
N61         Cu69   2.079       .  S
N62          C63   1.341       .  A
N62         Cu68   2.066   1_545  S
C63          C64   1.388       .  A
C63          H66   1.077       .  S
C64          C65   1.392       .  A
C64         C730   1.494       .  S
C65          H67   1.082       .  S
Cu68         N71   2.066       .  S
Cu69         N79   2.080   1_545  S
Cu70         N72   2.077       .  S
Cu70         N78   2.078       .  S
N71          N72   1.320       .  A
N71          C75   1.342       .  A
N72          C73   1.346       .  A
C73          C74   1.390       .  A
C73          H76   1.082       .  S
C74          C75   1.386       .  A
C74         C618   1.488       .  S
C75          H77   1.078       .  S
N78          N79   1.323       .  A
N78          C82   1.345       .  A
N79          C80   1.345       .  A
C80          C81   1.385       .  A
C80          H83   1.082   1_565  S
C81          C82   1.386       .  A
C81         C637   1.485       .  S
C82          H84   1.080       .  S
C85          C86   1.406       .  A
C85          C90   1.404       .  A
C85         C586   1.491       .  S
C86          C87   1.411       .  A
C86          H91   1.079       .  S
C87          C88   1.406       .  A
C87         C621   1.497       .  S
C88          C89   1.400       .  A
C88          H92   1.080       .  S
C89          C90   1.398       .  A
C89         C602   1.477       .  S
C90          H93   1.084       .  S
N94          N95   1.318       .  A
N94          C98   1.345       .  A
N94        Cu102   2.078       .  S
N95          C96   1.341       .  A
N95        Cu101   2.066       .  S
C96          C97   1.391       .  A
C96          H99   1.074       .  S
C97          C98   1.394       .  A
C97         C653   1.501       .  S
C98         H100   1.081       .  S
Cu101       N104   2.066   1_556  S
Cu102       N112   2.079       .  S
Cu103       N105   2.072       .  S
Cu103       N111   2.073   1_554  S
N104        N105   1.319       .  A
N104        C108   1.342       .  A
N105        C106   1.345       .  A
C106        C107   1.391       .  A
C106        H109   1.078       .  S
C107        C108   1.388       .  A
C107        C797   1.492       .  S
C108        H110   1.082       .  S
N111        N112   1.323       .  A
N111        C115   1.343       .  A
N112        C113   1.346       .  A
C113        C114   1.387       .  A
C113        H116   1.080       .  S
C114        C115   1.384       .  A
C114        C573   1.484       .  S
C115        H117   1.082   1_556  S
N118        N119   1.322       .  A
N118        C122   1.346       .  A
N118       Cu126   2.075       .  S
N119        C120   1.344       .  A
N119       Cu125   2.071   1_554  S
C120        C121   1.384       .  A
C120        H123   1.081       .  S
C121        C122   1.384       .  A
C121        C778   1.480       .  S
C122        H124   1.082       .  S
Cu125       N128   2.071       .  S
Cu126       N136   2.075   1_554  S
Cu127       N129   2.070       .  S
Cu127       N135   2.070       .  S
N128        N129   1.319       .  A
N128        C132   1.342       .  A
N129        C130   1.344       .  A
C130        C131   1.390       .  A
C130        H133   1.078       .  S
C131        C132   1.390       .  A
C131        C554   1.493       .  S
C132        H134   1.082       .  S
N135        N136   1.321       .  A
N135        C139   1.343       .  A
N136        C137   1.345   1_556  A
C137        C138   1.388   1_554  A
C137        H140   1.079       .  S
C138        C139   1.386       .  A
C138        C570   1.487       .  S
C139        H141   1.082       .  S
C142        C143   1.407       .  A
C142        C147   1.405       .  A
C142        C525   1.490       .  S
C143        C144   1.405       .  A
C143        H148   1.080       .  S
C144        C145   1.406       .  A
C144        C557   1.493       .  S
C145        C146   1.400       .  A
C145        H149   1.084       .  S
C146        C147   1.399       .  A
C146        C538   1.475       .  S
C147        H150   1.083       .  S
N151        N152   1.321       .  A
N151        C155   1.344       .  A
N151       Cu159   2.069       .  S
N152        C153   1.344       .  A
N152       Cu158   2.074       .  S
C153        C154   1.385       .  A
C153        H156   1.082       .  S
C154        C155   1.385       .  A
C154        C698   1.481       .  S
C155        H157   1.080       .  S
Cu158       N161   2.074   1_655  S
Cu159       N169   2.069       .  S
Cu160       N162   2.075       .  S
Cu160       N168   2.075   1_455  S
N161        N162   1.321       .  A
N161        C165   1.344       .  A
N162        C163   1.345       .  A
C163        C164   1.387       .  A
C163        H166   1.079       .  S
C164        C165   1.386       .  A
C164        C829   1.487       .  S
C165        H167   1.082       .  S
N168        N169   1.323       .  A
N168        C172   1.345       .  A
N169        C170   1.344       .  A
C170        C171   1.379       .  A
C170        H173   1.082       .  S
C171        C172   1.381       .  A
C171        C506   1.470       .  S
C172        H174   1.082   1_655  S
N175        N176   1.319       .  A
N175        C179   1.346       .  A
N175       Cu183   2.076       .  S
N176        C177   1.341       .  A
N176       Cu182   2.062   1_455  S
C177        C178   1.387       .  A
C177        H180   1.078       .  S
C178        C179   1.391       .  A
C178        C682   1.491       .  S
C179        H181   1.082       .  S
Cu182       N185   2.062       .  S
Cu183       N193   2.077   1_455  S
Cu184       N186   2.079       .  S
Cu184       N192   2.081       .  S
N185        N186   1.317       .  A
N185        C189   1.339       .  A
N186        C187   1.345       .  A
C187        C188   1.398       .  A
C187        H190   1.081       .  S
C188        C189   1.392       .  A
C188        C490   1.506       .  S
C189        H191   1.076       .  S
N192        N193   1.325       .  A
N192        C196   1.346       .  A
N193        C194   1.345       .  A
C194        C195   1.379       .  A
C194        H197   1.082   1_655  S
C195        C196   1.380       .  A
C195        C509   1.470       .  S
C196        H198   1.082       .  S
C199        C200   1.403       .  A
C199        C204   1.402       .  A
C199        C458   1.480       .  S
C200        C201   1.403       .  A
C200        H205   1.084       .  S
C201        C202   1.403       .  A
C201        C493   1.483       .  S
C202        C203   1.401       .  A
C202        H206   1.083       .  S
C203        C204   1.400       .  A
C203        C474   1.473       .  S
C204        H207   1.083       .  S
N208        N209   1.319       .  A
N208        C212   1.345       .  A
N208       Cu216   2.076       .  S
N209        C210   1.342       .  A
N209       Cu215   2.065   1_554  S
C210        C211   1.388       .  A
C210        H213   1.082       .  S
C211        C212   1.391       .  A
C211        C714   1.493       .  S
C212        H214   1.078       .  S
Cu215       N218   2.065       .  S
Cu216       N226   2.077   1_554  S
Cu217       N219   2.071       .  S
Cu217       N225   2.072       .  S
N218        N219   1.322       .  A
N218        C222   1.342       .  A
N219        C220   1.346       .  A
C220        C221   1.382       .  A
C220        H223   1.082       .  S
C221        C222   1.381       .  A
C221        C461   1.473       .  S
C222        H224   1.082       .  S
N225        N226   1.324       .  A
N225        C229   1.345       .  A
N226        C227   1.345       .  A
C227        C228   1.381       .  A
C227        H230   1.082   1_556  S
C228        C229   1.380       .  A
C228        C442   1.472       .  S
C229        H231   1.082       .  S
N232        N233   1.321       .  A
N232        C236   1.346       .  A
N232       Cu240   2.075       .  S
N233        C234   1.343       .  A
N233       Cu239   2.065       .  S
C234        C235   1.383       .  A
C234        H237   1.081       .  S
C235        C236   1.385       .  A
C235        C426   1.478       .  S
C236        H238   1.082       .  S
Cu239       N242   2.065   1_556  S
Cu240       N250   2.075       .  S
Cu241       N243   2.075       .  S
Cu241       N249   2.075   1_554  S
N242        N243   1.322       .  A
N242        C246   1.343       .  A
N243        C244   1.346       .  A
C244        C245   1.383       .  A
C244        H247   1.082       .  S
C245        C246   1.381       .  A
C245        C605   1.475       .  S
C246        H248   1.082       .  S
N249        N250   1.324       .  A
N249        C253   1.345       .  A
N250        C251   1.345       .  A
C251        C252   1.381       .  A
C251        H254   1.082       .  S
C252        C253   1.380       .  A
C252        C445   1.472       .  S
C253        H255   1.082   1_556  S
N256        N257   1.319       .  A
N256        C260   1.347       .  A
N256       Cu264   2.079       .  S
N257        C258   1.341       .  A
N257       Cu263   2.060   1_455  S
C258        C259   1.385       .  A
C258        H261   1.079       .  S
C259        C260   1.390       .  A
C259        C765   1.488       .  S
C260        H262   1.082       .  S
Cu263       N266   2.061       .  S
Cu264       N274   2.080   1_455  S
Cu265       N267   2.081       .  S
Cu265       N273   2.083       .  S
N266        N267   1.318       .  A
N266        C270   1.339       .  A
N267        C268   1.347       .  A
C268        C269   1.396       .  A
C268        H271   1.081       .  S
C269        C270   1.390       .  A
C269        C589   1.501       .  S
C270        H272   1.074       .  S
N273        N274   1.325       .  A
N273        C277   1.346       .  A
N274        C275   1.345       .  A
C275        C276   1.380       .  A
C275        H278   1.082   1_655  S
C276        C277   1.381       .  A
C276        C413   1.473       .  S
C277        H279   1.082       .  S
N280        N281   1.318       .  A
N280        C284   1.346       .  A
N280       Cu288   2.082       .  S
N281        C282   1.340       .  A
N281       Cu287   2.053   1_455  S
C282        C283   1.386       .  A
C282        H285   1.077       .  S
C283        C284   1.393       .  A
C283        C541   1.492       .  S
C284        H286   1.082       .  S
Cu287       N290   2.053       .  S
Cu288       N298   2.083   1_455  S
Cu289       N291   2.080       .  S
Cu289       N297   2.082       .  S
N290        N291   1.318       .  A
N290        C294   1.338       .  A
N291        C292   1.347       .  A
C292        C293   1.395       .  A
C292        H295   1.082       .  S
C293        C294   1.387       .  A
C293        C394   1.495       .  S
C294        H296   1.078       .  S
N297        N298   1.326       .  A
N297        C301   1.345       .  A
N298        C299   1.346       .  A
C299        C300   1.381       .  A
C299        H302   1.082   1_655  S
C300        C301   1.380       .  A
C300        C410   1.473       .  S
C301        H303   1.082       .  S
N304        N305   1.322       .  A
N304        C308   1.344       .  A
N304       Cu312   2.067       .  S
N305        C306   1.345       .  A
N305       Cu311   2.070       .  S
C306        C307   1.381       .  A
C306        H309   1.082       .  S
C307        C308   1.380       .  A
C307        C522   1.470       .  S
C308        H310   1.082       .  S
Cu311       N314   2.070   1_565  S
Cu312       N322   2.067       .  S
Cu313       N315   2.080       .  S
Cu313       N321   2.080   1_545  S
N314        N315   1.322       .  A
N314        C318   1.343       .  A
N315        C316   1.346       .  A
C316        C317   1.387       .  A
C316        H319   1.082       .  S
C317        C318   1.385       .  A
C317        C666   1.485       .  S
C318        H320   1.079       .  S
N321        N322   1.323       .  A
N321        C325   1.347       .  A
N322        C323   1.343       .  A
C323        C324   1.380       .  A
C323        H326   1.082       .  S
C324        C325   1.383       .  A
C324        C378   1.474       .  S
C325        H327   1.082   1_565  S
N328        N329   1.320       .  A
N328        C332   1.344       .  A
N328       Cu336   2.069       .  S
N329        C330   1.343       .  A
N329       Cu335   2.069   1_545  S
C330        C331   1.386       .  A
C330        H333   1.082       .  S
C331        C332   1.387       .  A
C331        C477   1.485       .  S
C332        H334   1.079       .  S
Cu335       N338   2.069       .  S
Cu336       N346   2.069   1_545  S
Cu337       N339   2.079       .  S
Cu337       N345   2.079       .  S
N338        N339   1.321       .  A
N338        C342   1.343       .  A
N339        C340   1.345       .  A
C340        C341   1.389       .  A
C340        H343   1.082       .  S
C341        C342   1.387       .  A
C341        C362   1.490       .  S
C342        H344   1.077       .  S
N345        N346   1.323       .  A
N345        C349   1.346       .  A
N346        C347   1.344       .  A
C347        C348   1.381       .  A
C347        H350   1.082   1_565  S
C348        C349   1.383       .  A
C348        C381   1.475       .  S
C349        H351   1.082       .  S
C352        C353   1.400       .  A
C352        C357   1.399       .  A
C352        C429   1.475       .  S
C353        C354   1.407       .  A
C353        H358   1.084       .  S
C354        C355   1.405       .  A
C354        C397   1.491       .  S
C355        C356   1.403       .  A
C355        H359   1.081       .  S
C356        C357   1.400       .  A
C356        C365   1.475       .  S
C357        H360   1.084       .  S
C361        C362   1.408       .  A
C361        C366   1.403       .  A
C361        H368   1.083       .  S
C362        C363   1.422       .  A
C363        C364   1.404       .  A
C363        C370   1.507       .  S
C364        C365   1.398       .  A
C364        H369   1.084       .  S
C365        C366   1.408       .  A
C366        C367   1.507       .  S
C367        H371   1.111       .  S
C367        H372   1.110       .  S
C367        H373   1.110       .  S
C370        H374   1.110       .  S
C370        H375   1.107       .  S
C370        H376   1.111       .  S
C377        C378   1.402       .  A
C377        C382   1.405       .  A
C377        H384   1.084       .  S
C378        C379   1.413       .  A
C379        C380   1.403       .  A
C379        C386   1.507       .  S
C380        C381   1.401       .  A
C380        H385   1.084       .  S
C381        C382   1.413       .  A
C382        C383   1.507       .  S
C383        H387   1.111   1_565  S
C383        H388   1.111       .  S
C383        H389   1.109   1_565  S
C386        H390   1.109       .  S
C386        H391   1.111       .  S
C386        H392   1.111       .  S
C393        C394   1.408       .  A
C393        C398   1.407       .  A
C393        H400   1.082       .  S
C394        C395   1.421       .  A
C395        C396   1.401       .  A
C395        C402   1.508       .  S
C396        C397   1.403       .  A
C396        H401   1.084       .  S
C397        C398   1.416       .  A
C398        C399   1.509       .  S
C399        H403   1.111       .  S
C399        H404   1.106       .  S
C399        H405   1.110       .  S
C402        H406   1.108       .  S
C402        H407   1.110       .  S
C402        H408   1.111       .  S
C409        C410   1.401       .  A
C409        C414   1.404       .  A
C409        H416   1.084       .  S
C410        C411   1.412       .  A
C411        C412   1.405       .  A
C411        C418   1.506       .  S
C412        C413   1.402       .  A
C412        H417   1.084       .  S
C413        C414   1.412       .  A
C414        C415   1.506       .  S
C415        H419   1.111       .  S
C415        H420   1.111       .  S
C415        H421   1.109   1_655  S
C418        H422   1.109       .  S
C418        H423   1.111       .  S
C418        H424   1.111       .  S
C425        C426   1.405       .  A
C425        C430   1.406       .  A
C425        H432   1.084       .  S
C426        C427   1.416       .  A
C427        C428   1.401       .  A
C427        C434   1.508       .  S
C428        C429   1.400       .  A
C428        H433   1.085       .  S
C429        C430   1.409       .  A
C430        C431   1.505       .  S
C431        H435   1.111       .  S
C431        H436   1.110       .  S
C431        H437   1.110       .  S
C434        H438   1.110       .  S
C434        H439   1.107       .  S
C434        H440   1.111       .  S
C441        C442   1.402       .  A
C441        C446   1.403       .  A
C441        H448   1.084       .  S
C442        C443   1.411       .  A
C443        C444   1.404       .  A
C443        C450   1.506       .  S
C444        C445   1.401       .  A
C444        H449   1.084       .  S
C445        C446   1.412       .  A
C446        C447   1.507       .  S
C447        H451   1.111       .  S
C447        H452   1.111       .  S
C447        H453   1.109       .  S
C450        H454   1.109   1_556  S
C450        H455   1.111       .  S
C450        H456   1.111       .  S
C457        C458   1.403       .  A
C457        C462   1.400       .  A
C457        H464   1.084       .  S
C458        C459   1.414       .  A
C459        C460   1.405       .  A
C459        C466   1.507       .  S
C460        C461   1.403       .  A
C460        H465   1.084       .  S
C461        C462   1.412       .  A
C462        C463   1.508       .  S
C463        H467   1.111       .  S
C463        H468   1.108       .  S
C463        H469   1.111       .  S
C466        H470   1.108       .  S
C466        H471   1.110       .  S
C466        H472   1.111       .  S
C473        C474   1.399       .  A
C473        C478   1.405       .  A
C473        H480   1.084       .  S
C474        C475   1.408       .  A
C475        C476   1.402       .  A
C475        C482   1.507       .  S
C476        C477   1.407       .  A
C476        H481   1.084       .  S
C477        C478   1.419       .  A
C478        C479   1.507       .  S
C479        H483   1.111       .  S
C479        H484   1.107       .  S
C479        H485   1.110       .  S
C482        H486   1.110       .  S
C482        H487   1.110       .  S
C482        H488   1.111       .  S
C489        C490   1.413       .  A
C489        C494   1.406       .  A
C489        H496   1.081       .  S
C490        C491   1.427       .  A
C491        C492   1.403       .  A
C491        C498   1.506       .  S
C492        C493   1.398       .  A
C492        H497   1.085       .  S
C493        C494   1.409       .  A
C494        C495   1.508       .  S
C495        H499   1.111       .  S
C495        H500   1.111       .  S
C495        H501   1.107       .  S
C498        H502   1.110       .  S
C498        H503   1.108       .  S
C498        H504   1.111       .  S
C505        C506   1.401       .  A
C505        C510   1.403       .  A
C505        H512   1.084       .  S
C506        C507   1.410       .  A
C507        C508   1.404       .  A
C507        C514   1.506       .  S
C508        C509   1.401       .  A
C508        H513   1.084       .  S
C509        C510   1.411       .  A
C510        C511   1.506       .  S
C511        H515   1.111       .  S
C511        H516   1.110       .  S
C511        H517   1.110       .  S
C514        H518   1.110       .  S
C514        H519   1.110       .  S
C514        H520   1.111       .  S
C521        C522   1.399       .  A
C521        C526   1.404       .  A
C521        H528   1.084       .  S
C522        C523   1.408       .  A
C523        C524   1.401       .  A
C523        C530   1.507       .  S
C524        C525   1.408       .  A
C524        H529   1.083       .  S
C525        C526   1.420       .  A
C526        C527   1.507       .  S
C527        H531   1.110       .  S
C527        H532   1.111       .  S
C527        H533   1.106       .  S
C530        H534   1.110       .  S
C530        H535   1.110       .  S
C530        H536   1.111       .  S
C537        C538   1.397       .  A
C537        C542   1.404       .  A
C537        H544   1.084       .  S
C538        C539   1.409       .  A
C539        C540   1.403       .  A
C539        C546   1.507       .  S
C540        C541   1.407       .  A
C540        H545   1.083       .  S
C541        C542   1.424       .  A
C542        C543   1.507       .  S
C543        H547   1.111       .  S
C543        H548   1.108       .  S
C543        H549   1.110       .  S
C546        H550   1.110       .  S
C546        H551   1.109       .  S
C546        H552   1.110       .  S
C553        C554   1.405       .  A
C553        C558   1.402       .  A
C553        H560   1.083       .  S
C554        C555   1.419       .  A
C555        C556   1.405       .  A
C555        C562   1.507       .  S
C556        C557   1.405       .  A
C556        H561   1.084       .  S
C557        C558   1.419       .  A
C558        C559   1.510       .  S
C559        H563   1.111       .  S
C559        H564   1.110       .  S
C559        H565   1.107       .  S
C562        H566   1.111       .  S
C562        H567   1.107       .  S
C562        H568   1.111       .  S
C569        C570   1.405       .  A
C569        C574   1.404       .  A
C569        H576   1.084       .  S
C570        C571   1.417       .  A
C571        C572   1.404       .  A
C571        C578   1.507   1_556  S
C572        C573   1.403       .  A
C572        H577   1.084   1_556  S
C573        C574   1.415       .  A
C574        C575   1.507       .  S
C575        H579   1.111       .  S
C575        H580   1.107       .  S
C575        H581   1.110       .  S
C578        H582   1.110       .  S
C578        H583   1.107       .  S
C578        H584   1.111       .  S
C585        C586   1.402       .  A
C585        C590   1.401       .  A
C585        H592   1.084       .  S
C586        C587   1.414       .  A
C587        C588   1.408       .  A
C587        C594   1.509       .  S
C588        C589   1.411       .  A
C588        H593   1.081       .  S
C589        C590   1.423       .  A
C590        C591   1.507       .  S
C591        H595   1.111       .  S
C591        H596   1.110       .  S
C591        H597   1.108       .  S
C594        H598   1.110       .  S
C594        H599   1.106       .  S
C594        H600   1.111       .  S
C601        C602   1.402       .  A
C601        C606   1.402       .  A
C601        H608   1.084       .  S
C602        C603   1.412       .  A
C603        C604   1.404       .  A
C603        C610   1.506       .  S
C604        C605   1.402       .  A
C604        H609   1.084       .  S
C605        C606   1.414       .  A
C606        C607   1.507       .  S
C607        H611   1.111       .  S
C607        H612   1.108       .  S
C607        H613   1.110       .  S
C610        H614   1.108       .  S
C610        H615   1.110       .  S
C610        H616   1.111       .  S
C617        C618   1.404       .  A
C617        C622   1.405       .  A
C617        H624   1.083       .  S
C618        C619   1.416       .  A
C619        C620   1.403       .  A
C619        C626   1.508       .  S
C620        C621   1.406       .  A
C620        H625   1.083       .  S
C621        C622   1.421       .  A
C622        C623   1.509       .  S
C623        H627   1.111       .  S
C623        H628   1.110       .  S
C623        H629   1.106       .  S
C626        H630   1.111       .  S
C626        H631   1.105       .  S
C626        H632   1.111       .  S
C633        C634   1.403       .  A
C633        C638   1.404       .  A
C633        H640   1.084       .  S
C634        C635   1.416       .  A
C635        C636   1.405       .  A
C635        C642   1.507   1_565  S
C636        C637   1.404       .  A
C636        H641   1.084   1_565  S
C637        C638   1.416       .  A
C638        C639   1.507       .  S
C639        H643   1.111       .  S
C639        H644   1.107       .  S
C639        H645   1.110       .  S
C642        H646   1.110       .  S
C642        H647   1.107       .  S
C642        H648   1.111       .  S
C649        C650   1.398       .  A
C649        C654   1.402       .  A
C649        H656   1.085       .  S
C650        C651   1.407       .  A
C651        C652   1.406       .  A
C651        C658   1.507       .  S
C652        C653   1.413       .  A
C652        H657   1.082       .  S
C653        C654   1.425       .  A
C654        C655   1.506       .  S
C655        H659   1.111       .  S
C655        H660   1.109       .  S
C655        H661   1.108       .  S
C658        H662   1.109       .  S
C658        H663   1.110       .  S
C658        H664   1.111       .  S
C665        C666   1.406       .  A
C665        C670   1.403       .  A
C665        H672   1.084       .  S
C666        C667   1.420       .  A
C667        C668   1.404       .  A
C667        C674   1.507       .  S
C668        C669   1.398       .  A
C668        H673   1.084       .  S
C669        C670   1.408       .  A
C670        C671   1.506       .  S
C671        H675   1.111       .  S
C671        H676   1.111       .  S
C671        H677   1.110       .  S
C674        H678   1.110       .  S
C674        H679   1.106       .  S
C674        H680   1.111       .  S
C681        C682   1.406       .  A
C681        C686   1.406       .  A
C681        H688   1.083       .  S
C682        C683   1.418       .  A
C683        C684   1.402       .  A
C683        C690   1.508       .  S
C684        C685   1.404       .  A
C684        H689   1.084       .  S
C685        C686   1.418       .  A
C686        C687   1.510       .  S
C687        H691   1.111       .  S
C687        H692   1.106       .  S
C687        H693   1.110       .  S
C690        H694   1.106       .  S
C690        H695   1.111       .  S
C690        H696   1.111       .  S
C697        C698   1.405       .  A
C697        C702   1.402       .  A
C697        H704   1.084       .  S
C698        C699   1.418       .  A
C699        C700   1.405       .  A
C699        C706   1.507       .  S
C700        C701   1.399       .  A
C700        H705   1.084       .  S
C701        C702   1.409       .  A
C702        C703   1.507       .  S
C703        H707   1.111       .  S
C703        H708   1.110       .  S
C703        H709   1.110       .  S
C706        H710   1.110       .  S
C706        H711   1.107       .  S
C706        H712   1.111       .  S
C713        C714   1.407       .  A
C713        C718   1.402       .  A
C713        H720   1.083       .  S
C714        C715   1.419       .  A
C715        C716   1.404       .  A
C715        C722   1.507       .  S
C716        C717   1.405       .  A
C716        H721   1.084       .  S
C717        C718   1.417       .  A
C718        C719   1.509       .  S
C719        H723   1.111       .  S
C719        H724   1.110       .  S
C719        H725   1.106       .  S
C722        H726   1.107       .  S
C722        H727   1.111       .  S
C722        H728   1.111       .  S
C729        C730   1.408       .  A
C729        C734   1.406       .  A
C729        H736   1.083       .  S
C730        C731   1.420       .  A
C731        C732   1.401       .  A
C731        C738   1.508       .  S
C732        C733   1.404       .  A
C732        H737   1.084       .  S
C733        C734   1.416       .  A
C734        C735   1.507       .  S
C735        H739   1.111       .  S
C735        H740   1.110       .  S
C735        H741   1.107       .  S
C738        H742   1.107       .  S
C738        H743   1.110       .  S
C738        H744   1.111       .  S
C745        C746   1.398       .  A
C745        C750   1.407       .  A
C745        H752   1.084       .  S
C746        C747   1.409       .  A
C747        C748   1.402       .  A
C747        C754   1.508       .  S
C748        C749   1.408       .  A
C748        H753   1.083       .  S
C749        C750   1.422       .  A
C750        C751   1.506       .  S
C751        H755   1.111       .  S
C751        H756   1.110       .  S
C751        H757   1.107       .  S
C754        H758   1.110       .  S
C754        H759   1.110       .  S
C754        H760   1.111       .  S
C761        C762   1.397       .  A
C761        C766   1.403       .  A
C761        H768   1.084       .  S
C762        C763   1.408       .  A
C763        C764   1.405       .  A
C763        C770   1.505       .  S
C764        C765   1.408       .  A
C764        H769   1.084       .  S
C765        C766   1.421       .  A
C766        C767   1.508       .  S
C767        H771   1.111       .  S
C767        H772   1.110       .  S
C767        H773   1.107       .  S
C770        H774   1.111       .  S
C770        H775   1.110       .  S
C770        H776   1.111       .  S
C777        C778   1.404       .  A
C777        C782   1.405       .  A
C777        H784   1.084       .  S
C778        C779   1.416       .  A
C779        C780   1.402       .  A
C779        C786   1.508       .  S
C780        C781   1.401       .  A
C780        H785   1.084       .  S
C781        C782   1.412       .  A
C782        C783   1.507       .  S
C783        H787   1.111       .  S
C783        H788   1.110       .  S
C783        H789   1.109       .  S
C786        H790   1.110       .  S
C786        H791   1.107       .  S
C786        H792   1.111       .  S
C793        C794   1.409       .  A
C793        C798   1.405       .  A
C793        H800   1.083       .  S
C794        C795   1.423       .  A
C795        C796   1.404       .  A
C795        C802   1.510       .  S
C796        C797   1.404       .  A
C796        H801   1.083       .  S
C797        C798   1.416       .  A
C798        C799   1.507       .  S
C799        H803   1.111       .  S
C799        H804   1.111       .  S
C799        H805   1.106       .  S
C802        H806   1.110       .  S
C802        H807   1.108       .  S
C802        H808   1.111       .  S
C809        C810   1.399       .  A
C809        C814   1.402       .  A
C809        H816   1.085       .  S
C810        C811   1.408       .  A
C811        C812   1.406       .  A
C811        C818   1.506       .  S
C812        C813   1.410       .  A
C812        H817   1.084       .  S
C813        C814   1.420       .  A
C814        C815   1.507       .  S
C815        H819   1.111       .  S
C815        H820   1.107       .  S
C815        H821   1.110       .  S
C818        H822   1.110       .  S
C818        H823   1.110       .  S
C818        H824   1.111       .  S
C825        C826   1.399       .  A
C825        C830   1.404       .  A
C825        H832   1.084       .  S
C826        C827   1.408       .  A
C827        C828   1.403       .  A
C827        C834   1.506       .  S
C828        C829   1.408       .  A
C828        H833   1.084       .  S
C829        C830   1.419       .  A
C830        C831   1.507       .  S
C831        H835   1.111       .  S
C831        H836   1.107       .  S
C831        H837   1.110       .  S
C834        H838   1.110       .  S
C834        H839   1.110       .  S
C834        H840   1.111       .  S
