geometry optimzed in LAMMPS
_audit_creation_date              2020-11-30 
_audit_creation_method            'lammps2cif' 
_symmetry_space_group_name_H-M    'P1' 
_symmetry_Int_Tables_number       1 
_symmetry_cell_setting            triclinic 
loop_ 
_symmetry_equiv_pos_as_xyz 
  x,y,z 
_cell_length_a                    26.39958184 
_cell_length_b                    26.415849759603685 
_cell_length_c                    26.40821667328462 
_cell_angle_alpha                 90.1085816583257 
_cell_angle_beta                  90.18913882496285 
_cell_angle_gamma                 90.10496688816961 
loop_ 
_atom_site_label 
_atom_site_type_symbol 
_atom_site_fract_x 
_atom_site_fract_y 
_atom_site_fract_z 
_atom_site_charge 
Zn1        Zn  0.94725417  0.04398133  0.04564950     1.49700
Zn2        Zn  0.03637082  0.04509134  0.96403595     1.49400
Zn3        Zn  0.03261434  0.95824794  0.04794866     1.49100
Zn4        Zn  0.95122736  0.95889983  0.95826008     1.49500
O5          O  0.99171190  0.00158045  0.00393640    -1.83600
O6          O  0.95774598  0.11796552  0.03043261    -0.74300
O7          O  0.10982733  0.03183695  0.98062482    -0.74100
O8          O  0.01859522  0.97241783  0.12118352    -0.73600
O9          O  0.02128517  0.11908762  0.97575595    -0.74300
O10         O  0.96115300  0.03379227  0.12049816    -0.73900
O11         O  0.10720158  0.96984857  0.03713315    -0.74500
O12         O  0.96381667  0.88472034  0.97105633    -0.73900
O13         O  0.02718146  0.03210731  0.88951977    -0.74600
O14         O  0.01834798  0.88445531  0.03512100    -0.74000
O15         O  0.96757925  0.97288911  0.88463366    -0.74500
O16         O  0.87670118  0.97051833  0.97000454    -0.74400
O17         O  0.87368923  0.02768518  0.03191429    -0.74200
C18         C  0.98878156  0.14220037  0.00279147     0.77600
C19         C  0.13214525  0.00055432  0.00978462     0.78100
C20         C  0.98999130  0.00335867  0.14434229     0.77100
C21         C  0.99060832  0.86096583  0.00335857     0.77400
C22         C  0.99863323  0.00316272  0.86351804     0.78600
C23         C  0.85175760  0.99785333  0.00082895     0.77600
Zn24       Zn  0.96285098  0.04806611  0.54758661     1.49700
Zn25       Zn  0.04796324  0.05103491  0.46084006     1.49400
Zn26       Zn  0.05022154  0.96412559  0.54510533     1.49100
Zn27       Zn  0.96383567  0.96456274  0.46055455     1.49500
O28         O  0.00631981  0.00711037  0.50368262    -1.83600
O29         O  0.97422000  0.12238315  0.53472349    -0.74300
O30         O  0.12252737  0.03936378  0.47325565    -0.74100
O31         O  0.03664186  0.97443151  0.61958097    -0.73600
O32         O  0.03321114  0.12413854  0.47519129    -0.74300
O33         O  0.97698694  0.03351137  0.62152460    -0.73900
O34         O  0.12390038  0.97916650  0.53184030    -0.74500
O35         O  0.97813787  0.89092709  0.47157074    -0.73900
O36         O  0.03357036  0.03963835  0.38645954    -0.74600
O37         O  0.03884187  0.89028794  0.52954605    -0.74000
O38         O  0.97467821  0.97985546  0.38712035    -0.74500
O39         O  0.89021470  0.97555799  0.47402628    -0.74400
O40         O  0.88865094  0.03391477  0.53435573    -0.74200
C41         C  0.00316480  0.14693053  0.50514515     0.77600
C42         C  0.14680575  0.00979397  0.50253232     0.78100
C43         C  0.00662000  0.00288312  0.64419100     0.77100
C44         C  0.00902530  0.86688325  0.49952913     0.77400
C45         C  0.00297251  0.01051738  0.36309441     0.78600
C46         C  0.86578603  0.00394014  0.50408448     0.77600
Zn47       Zn  0.03981235  0.54542498  0.95733851     1.49700
Zn48       Zn  0.95237370  0.46089929  0.95155462     1.49400
Zn49       Zn  0.03619695  0.45645687  0.03850768     1.49100
Zn50       Zn  0.95277317  0.54400474  0.04024730     1.49500
O51         O  0.99512202  0.50162007  0.99679293    -1.83600
O52         O  0.02994333  0.53320061  0.88319101    -0.74300
O53         O  0.96420534  0.38593895  0.96184761    -0.74100
O54         O  0.11066962  0.46629171  0.02546457    -0.73600
O55         O  0.96787418  0.47685566  0.87843020    -0.74300
O56         O  0.11335938  0.53247648  0.97366947    -0.73900
O57         O  0.01954108  0.38335187  0.02530854    -0.74500
O58         O  0.96902888  0.53253723  0.11400779    -0.73900
O59         O  0.87803186  0.47387983  0.96537209    -0.74600
O60         O  0.02504380  0.47030881  0.11230698    -0.74000
O61         O  0.87880808  0.52941465  0.02876747    -0.74500
O62         O  0.96330421  0.61800214  0.02580219    -0.74400
O63         O  0.02484511  0.61914064  0.96883112    -0.74200
C64         C  0.00024129  0.50563203  0.85710802     0.77600
C65         C  0.99124493  0.36112551  0.99308994     0.78100
C66         C  0.13546893  0.49897998  0.00029963     0.77100
C67         C  0.99846738  0.50191743  0.13688680     0.77400
C68         C  0.85490873  0.50158716  0.99738297     0.78600
C69         C  0.99300208  0.64209083  0.99656598     0.77600
Zn70       Zn  0.96214064  0.46389786  0.53774399     1.49700
Zn71       Zn  0.05077753  0.54665806  0.54148054     1.49400
Zn72       Zn  0.04769657  0.46412685  0.45284902     1.49100
Zn73       Zn  0.96502982  0.55236803  0.45622732     1.49500
O74         O  0.00654813  0.50674218  0.49706228    -1.83600
O75         O  0.97312935  0.47667044  0.61183440    -0.74300
O76         O  0.12436985  0.53038506  0.52932272    -0.74100
O77         O  0.03454826  0.39007021  0.46621506    -0.73600
O78         O  0.03466419  0.53369811  0.61493531    -0.74300
O79         O  0.97500609  0.39010740  0.52511643    -0.73900
O80         O  0.12235573  0.47648689  0.46485790    -0.74500
O81         O  0.97645372  0.54085370  0.38201831    -0.73900
O82         O  0.04176918  0.62139722  0.52939739    -0.74600
O83         O  0.03146710  0.47772121  0.37929701    -0.74000
O84         O  0.98080658  0.62514264  0.47177146    -0.74500
O85         O  0.89066892  0.54110277  0.46820034    -0.74400
O86         O  0.88864092  0.47718326  0.52244482    -0.74200
C87         C  0.00257263  0.50531841  0.63708819     0.77600
C88         C  0.14707569  0.50251724  0.49719518     0.78100
C89         C  0.00464252  0.36638082  0.49553135     0.77100
C90         C  0.00262939  0.50931466  0.35692116     0.77400
C91         C  0.01216465  0.64700126  0.50136824     0.78600
C92         C  0.86603318  0.50956122  0.49484018     0.77600
Zn93       Zn  0.53565595  0.94742111  0.95660909     1.49700
Zn94       Zn  0.44984006  0.03276292  0.95669086     1.49400
Zn95       Zn  0.44950098  0.94746923  0.04347228     1.49100
Zn96       Zn  0.53539989  0.03303446  0.04137709     1.49500
O97         O  0.49234955  0.98976278  0.99950767    -1.83600
O98         O  0.52326377  0.96155002  0.88225766    -0.74300
O99         O  0.37599036  0.02053213  0.97092206    -0.74100
O100        O  0.46169395  0.87275539  0.02885974    -0.73600
O101        O  0.46282277  0.01973383  0.88271127    -0.74300
O102        O  0.52119381  0.87368183  0.96961646    -0.73900
O103        O  0.37481372  0.96286021  0.03189158    -0.74500
O104        O  0.52577020  0.01917418  0.11491808    -0.73900
O105        O  0.46339288  0.10695463  0.96919645    -0.74600
O106        O  0.46560618  0.96049384  0.11796996    -0.74000
O107        O  0.52127564  0.10644903  0.03017469    -0.74500
O108        O  0.60866929  0.02267456  0.02658757    -0.74400
O109        O  0.61037927  0.96048899  0.97006870    -0.74200
C110        C  0.49311259  0.99102764  0.85879210     0.77600
C111        C  0.35167855  0.99239809  0.00144973     0.78100
C112        C  0.49177600  0.84950668  0.99907820     0.77100
C113        C  0.49726693  0.98979120  0.14000300     0.77400
C114        C  0.49220553  0.13026263  0.00019812     0.78600
C115        C  0.63305420  0.99280312  0.99800539     0.77600
Zn116      Zn  0.55050007  0.96152748  0.45619452     1.49700
Zn117      Zn  0.46308880  0.04491797  0.45746837     1.49400
Zn118      Zn  0.46412923  0.95738841  0.54066531     1.49100
Zn119      Zn  0.54778887  0.04504872  0.54425578     1.49500
O120        O  0.50640078  0.00220205  0.49967878    -1.83600
O121        O  0.53520968  0.97328603  0.38215680    -0.74300
O122        O  0.38918117  0.03335842  0.47267479    -0.74100
O123        O  0.47832244  0.88392714  0.52509290    -0.73600
O124        O  0.47321789  0.02982036  0.38337035    -0.74300
O125        O  0.54027771  0.88699508  0.46887107    -0.73900
O126        O  0.38996024  0.97026320  0.52801943    -0.74500
O127        O  0.53500046  0.02970456  0.61786051    -0.73900
O128        O  0.47820724  0.11867928  0.46915052    -0.74600
O129        O  0.47691324  0.96879662  0.61514636    -0.74000
O130        O  0.53406195  0.11907921  0.53217778    -0.74500
O131        O  0.62188571  0.03419508  0.53141815    -0.74400
O132        O  0.62405697  0.97759664  0.46925607    -0.74200
C133        C  0.50278491  0.00060046  0.35914819     0.77600
C134        C  0.36594935  0.00172946  0.50060400     0.78100
C135        C  0.50979498  0.86168171  0.49613286     0.77100
C136        C  0.50597096  0.99835484  0.64002184     0.77400
C137        C  0.50660825  0.14243656  0.50013805     0.78600
C138        C  0.64654489  0.00695863  0.50040305     0.77600
Zn139      Zn  0.45197420  0.53004918  0.04419853     1.49700
Zn140      Zn  0.53755519  0.53365258  0.95850165     1.49400
Zn141      Zn  0.53813564  0.44539302  0.04126867     1.49100
Zn142      Zn  0.45247023  0.44763415  0.95552692     1.49500
O143        O  0.49508503  0.48920912  0.99987024    -1.83600
O144        O  0.46213611  0.60459915  0.03140470    -0.74300
O145        O  0.61189610  0.52252507  0.97319997    -0.74100
O146        O  0.52647176  0.45735811  0.11557737    -0.73600
O147        O  0.52104514  0.60707076  0.97178251    -0.74300
O148        O  0.46707308  0.51658688  0.11789004    -0.73900
O149        O  0.61194851  0.45934208  0.02827379    -0.74500
O150        O  0.46477549  0.37350456  0.96740784    -0.73900
O151        O  0.52651267  0.52054262  0.88391322    -0.74600
O152        O  0.52445482  0.37162846  0.02680397    -0.74000
O153        O  0.46704392  0.46126243  0.88206928    -0.74500
O154        O  0.37835827  0.46115785  0.96771303    -0.74400
O155        O  0.37819472  0.51536718  0.03176952    -0.74200
C156        C  0.49029235  0.62949228  0.00138432     0.77600
C157        C  0.63567923  0.49101718  0.00094368     0.78100
C158        C  0.49780243  0.48697892  0.14035109     0.77100
C159        C  0.49446010  0.34902425  0.99635761     0.77400
C160        C  0.49707792  0.49113613  0.85927698     0.78600
C161        C  0.35449918  0.48798922  0.99974803     0.77600
Zn162      Zn  0.46444436  0.54535526  0.45671374     1.49700
Zn163      Zn  0.46320165  0.45941058  0.54172324     1.49400
Zn164      Zn  0.54817690  0.45806581  0.45661341     1.49100
Zn165      Zn  0.55038733  0.54390254  0.54254396     1.49500
O166        O  0.50663443  0.50183589  0.49947125    -1.83600
O167        O  0.39042842  0.53577054  0.47231464    -0.74300
O168        O  0.47660542  0.38536826  0.53049593    -0.74100
O169        O  0.53136761  0.46769778  0.38291373    -0.73600
O170        O  0.38925574  0.47262216  0.52781670    -0.74300
O171        O  0.47337102  0.52839067  0.38289302    -0.73900
O172        O  0.53717631  0.38440663  0.47253123    -0.74500
O173        O  0.62433946  0.53128556  0.52689135    -0.73900
O174        O  0.47645120  0.47247285  0.61543827    -0.74600
O175        O  0.62223429  0.47263605  0.46658913    -0.74000
O176        O  0.53862729  0.52898014  0.61682613    -0.74500
O177        O  0.53658065  0.61827944  0.53081200    -0.74400
O178        O  0.48098284  0.61923478  0.46734140    -0.74200
C179        C  0.36637684  0.50492603  0.50033364     0.77600
C180        C  0.50748694  0.36134396  0.50258137     0.78100
C181        C  0.50073119  0.49654494  0.35939665     0.77100
C182        C  0.64688681  0.50188981  0.49599382     0.77400
C183        C  0.50780341  0.49997618  0.63984393     0.78600
C184        C  0.50900984  0.64222751  0.49930331     0.77600
C185        C  0.54571293  0.50031708  0.77981818    -0.05300
C186        C  0.49862690  0.49175653  0.80300699     0.00600
C187        C  0.45480197  0.48569799  0.77223601    -0.07900
C188        C  0.45991890  0.48934589  0.71938063    -0.05300
C189        C  0.50691621  0.49826639  0.69614515     0.00600
C190        C  0.55094126  0.50308236  0.72684453    -0.07900
C191        C  0.60347557  0.50949227  0.70429909     0.62500
H192        H  0.57881634  0.50445666  0.80379658     0.13200
H193        H  0.42674746  0.48530042  0.69549218     0.13200
C194        C  0.40254666  0.47642586  0.79453839     0.62800
F195        F  0.64112643  0.50611901  0.74076904    -0.22400
F196        F  0.60750374  0.55646633  0.68166057    -0.19700
F197        F  0.61216674  0.47197773  0.66874539    -0.19400
F198        F  0.39176009  0.51306566  0.83039787    -0.19500
F199        F  0.40091934  0.42905700  0.81669959    -0.19800
F200        F  0.36484951  0.47810429  0.75799650    -0.22500
C201        C  0.45377751  0.49210235  0.22268834    -0.05300
C202        C  0.49973273  0.48723195  0.19648144     0.00600
C203        C  0.54587886  0.48504640  0.22415740    -0.07900
C204        C  0.54406443  0.48780577  0.27728728    -0.05300
C205        C  0.49822539  0.49347817  0.30342309     0.00600
C206        C  0.45202128  0.49507172  0.27586121    -0.07900
C207        C  0.40097640  0.49867263  0.30210999     0.62500
H208        H  0.41896608  0.49365616  0.20094267     0.13200
H209        H  0.57886748  0.48635677  0.29905100     0.13200
C210        C  0.59706466  0.48178387  0.19811997     0.62800
F211        F  0.36111239  0.49204086  0.26851920    -0.22400
F212        F  0.39574688  0.54583241  0.32424103    -0.19700
F213        F  0.39718343  0.46162320  0.33888230    -0.19400
F214        F  0.60127076  0.51975267  0.16235358    -0.19500
F215        F  0.60217255  0.43514570  0.17486287    -0.19800
F216        F  0.63680110  0.48735053  0.23205050    -0.22500
C217        C  0.49570668  0.77973053  0.53937400    -0.05300
C218        C  0.51095733  0.80525492  0.49523163     0.00600
C219        C  0.52511095  0.77638444  0.45190747    -0.07900
C220        C  0.52370782  0.72314369  0.45495732    -0.05300
C221        C  0.50956061  0.69814173  0.49947076     0.00600
C222        C  0.49477214  0.72660804  0.54231113    -0.07900
C223        C  0.47666374  0.70094600  0.59040924     0.62500
H224        H  0.48486571  0.80189313  0.57216359     0.13200
H225        H  0.53441577  0.70028844  0.42258335     0.13200
C226        C  0.54085918  0.80094121  0.40232633     0.62800
F227        F  0.45880944  0.73553166  0.62550354    -0.22400
F228        F  0.51618344  0.67464027  0.61245885    -0.19700
F229        F  0.43768840  0.66766937  0.57908186    -0.19400
F230        F  0.58674633  0.82554488  0.40861908    -0.19500
F231        F  0.50437749  0.83518092  0.38685128    -0.19800
F232        F  0.54669252  0.76567045  0.36393704    -0.22500
C233        C  0.50734651  0.22392402  0.54628066    -0.05300
C234        C  0.50751009  0.19846786  0.49955396     0.00600
C235        C  0.50991019  0.22676558  0.45401853    -0.07900
C236        C  0.51036658  0.27988538  0.45704447    -0.05300
C237        C  0.50812676  0.30535255  0.50364862     0.00600
C238        C  0.50743636  0.27710948  0.54928068    -0.07900
C239        C  0.50813273  0.30266126  0.60090963     0.62500
H240        H  0.50616941  0.20163140  0.58062961     0.13200
H241        H  0.51134586  0.30215943  0.42267523     0.13200
C242        C  0.51295638  0.20137024  0.40242204     0.62800
F243        F  0.51491754  0.26811365  0.63970669    -0.22400
F244        F  0.46271010  0.32726082  0.60908647    -0.19700
F245        F  0.54746725  0.33728186  0.60335518    -0.19400
F246        F  0.46717029  0.17849566  0.39099633    -0.19500
F247        F  0.55096677  0.16537004  0.40247524    -0.19800
F248        F  0.52360148  0.23577506  0.36440422    -0.22500
C249        C  0.53461698  0.71146555  0.99383148    -0.05300
C250        C  0.48871340  0.68575736  0.00135744     0.00600
C251        C  0.44342267  0.71410433  0.00734680    -0.07900
C252        C  0.44628791  0.76740111  0.00624900    -0.05300
C253        C  0.49234137  0.79311859  0.99879740     0.00600
C254        C  0.53753204  0.76459222  0.99261083    -0.07900
C255        C  0.58906910  0.78955178  0.98608407     0.62500
H256        H  0.56880438  0.68923651  0.98921189     0.13200
H257        H  0.41211628  0.78965148  0.01090385     0.13200
C258        C  0.39207679  0.68863631  0.01341379     0.62800
F259        F  0.62818270  0.75476498  0.98841258    -0.22400
F260        F  0.59702928  0.82480541  0.02411247    -0.19700
F261        F  0.59146178  0.81306442  0.93941630    -0.19400
F262        F  0.38968224  0.66451785  0.05976728    -0.19500
F263        F  0.38460112  0.65366221  0.97501596    -0.19800
F264        F  0.35272083  0.72315261  0.01128086    -0.22500
C265        C  0.49304025  0.21118705  0.95367352    -0.05300
C266        C  0.49256648  0.18623394  0.00052895     0.00600
C267        C  0.49195775  0.21495331  0.04596263    -0.07900
C268        C  0.49288445  0.26805276  0.04264042    -0.05300
C269        C  0.49341940  0.29303164  0.99579908     0.00600
C270        C  0.49365456  0.26431418  0.95034869    -0.07900
C271        C  0.49612257  0.28930484  0.89861550     0.62500
H272        H  0.49340580  0.18850134  0.91946278     0.13200
H273        H  0.49267621  0.29070887  0.07687221     0.13200
C274        C  0.48856997  0.19000261  0.09768685     0.62800
F275        F  0.50304491  0.25423954  0.86022419    -0.22400
F276        F  0.53623869  0.32304747  0.89717011    -0.19700
F277        F  0.45144153  0.31477658  0.88894698    -0.19400
F278        F  0.53338377  0.16526003  0.10860704    -0.19500
F279        F  0.44895383  0.15563017  0.09820160    -0.19800
F280        F  0.48003240  0.22502889  0.13576884    -0.22500
C281        C  0.54267936  0.99008355  0.77941111    -0.05300
C282        C  0.49490851  0.99302816  0.80258352     0.00600
C283        C  0.45090949  0.99751759  0.77179194    -0.07900
C284        C  0.45658399  0.99890842  0.71889972    -0.05300
C285        C  0.50433274  0.99699862  0.69596869     0.00600
C286        C  0.54832999  0.99247031  0.72648136    -0.07900
C287        C  0.60084579  0.98894627  0.70340606     0.62500
H288        H  0.57590100  0.98680649  0.80335590     0.13200
H289        H  0.42352060  0.00227623  0.69473577     0.13200
C290        C  0.39803189  0.99926213  0.79411340     0.62800
F291        F  0.63758240  0.97904592  0.73958417    -0.22400
F292        F  0.61311384  0.03419485  0.68022495    -0.19700
F293        F  0.60202847  0.95030114  0.66800547    -0.19400
F294        F  0.39148524  0.04390606  0.82065850    -0.19500
F295        F  0.39126842  0.95845548  0.82607143    -0.19800
F296        F  0.36081002  0.99699046  0.75710314    -0.22500
C297        C  0.45431854  0.99320335  0.22288678    -0.05300
C298        C  0.50000665  0.99105864  0.19604561     0.00600
C299        C  0.54664734  0.99149809  0.22298698    -0.07900
C300        C  0.54558023  0.99435497  0.27618446    -0.05300
C301        C  0.49991314  0.99811540  0.30302803     0.00600
C302        C  0.45327641  0.99746124  0.27601722    -0.07900
C303        C  0.40249288  0.00063791  0.30277341     0.62500
H304        H  0.41920280  0.99307364  0.20156054     0.13200
H305        H  0.58077759  0.99481949  0.29737340     0.13200
C306        C  0.59740486  0.98818485  0.19609992     0.62800
F307        F  0.36236572  0.99263055  0.26981244    -0.22400
F308        F  0.39670147  0.04820184  0.32391600    -0.19700
F309        F  0.39979434  0.96431850  0.34035266    -0.19400
F310        F  0.60650853  0.03244874  0.16976678    -0.19500
F311        F  0.59728601  0.94770173  0.16278415    -0.19800
F312        F  0.63706637  0.98130782  0.22982323    -0.22500
C313        C  0.78554523  0.46206850  0.49180937    -0.05300
C314        C  0.80992493  0.50931442  0.49324069     0.00600
C315        C  0.78048854  0.55417579  0.49474370    -0.07900
C316        C  0.72736692  0.54979303  0.49579690    -0.05300
C317        C  0.70298615  0.50254098  0.49394129     0.00600
C318        C  0.73245452  0.45770444  0.49147257    -0.07900
C319        C  0.70841367  0.40536707  0.48973059     0.62500
H320        H  0.80871776  0.42830243  0.49028014     0.13200
H321        H  0.70418546  0.58354937  0.49731509     0.13200
C322        C  0.80469247  0.60640882  0.49629789     0.62800
F323        F  0.74418578  0.36729726  0.49377515    -0.22400
F324        F  0.68314453  0.39873247  0.44424921    -0.19700
F325        F  0.67470807  0.39992276  0.52935704    -0.19400
F326        F  0.82884832  0.61596963  0.45091450    -0.19500
F327        F  0.83943161  0.60906255  0.53555773    -0.19800
F328        F  0.76918813  0.64418891  0.50372387    -0.22500
C329        C  0.28525404  0.46015650  0.48857102    -0.05300
C330        C  0.31047107  0.50548520  0.50002560     0.00600
C331        C  0.28220397  0.54945084  0.51150119    -0.07900
C332        C  0.22899649  0.54656702  0.51025011    -0.05300
C333        C  0.20341804  0.50154043  0.49734510     0.00600
C334        C  0.23204285  0.45726539  0.48657630    -0.07900
C335        C  0.20713323  0.40684396  0.47396393     0.62500
H336        H  0.30787327  0.42706371  0.48019962     0.13200
H337        H  0.20685656  0.57998384  0.51855848     0.13200
C338        C  0.30804664  0.59886167  0.52601351     0.62800
F339        F  0.24202923  0.36782090  0.47191827    -0.22400
F340        F  0.18361719  0.40968173  0.42719459    -0.19700
F341        F  0.17181976  0.39470321  0.51059890    -0.19400
F342        F  0.33332451  0.61835893  0.48462202    -0.19500
F343        F  0.34230173  0.59056348  0.56487675    -0.19800
F344        F  0.27363602  0.63480047  0.54236060    -0.22500
C345        C  0.77544399  0.45298499  0.00437367    -0.05300
C346        C  0.79895493  0.50023807  0.99891000     0.00600
C347        C  0.76896237  0.54442991  0.99481751    -0.07900
C348        C  0.71590161  0.53942940  0.99543366    -0.05300
C349        C  0.69205436  0.49218622  0.00158655     0.00600
C350        C  0.72240388  0.44801604  0.00682887    -0.07900
C351        C  0.69953489  0.39571124  0.01441168     0.62500
H352        H  0.79936635  0.41985235  0.00783515     0.13200
H353        H  0.69243018  0.57287536  0.99199527     0.13200
C354        C  0.79275785  0.59650847  0.98897150     0.62800
F355        F  0.73593323  0.35805545  0.01325569    -0.22400
F356        F  0.66472746  0.38551592  0.97645280    -0.19700
F357        F  0.67596614  0.39341055  0.06105427    -0.19400
F358        F  0.82611449  0.59639248  0.94868123    -0.19500
F359        F  0.81855067  0.60938448  0.03279849    -0.19800
F360        F  0.75675389  0.63350732  0.98001295    -0.22500
C361        C  0.21459856  0.45206075  0.98530197    -0.05300
C362        C  0.19129304  0.49694511  0.00115423     0.00600
C363        C  0.22128145  0.53795404  0.01827500    -0.07900
C364        C  0.27428157  0.53326923  0.01684400    -0.05300
C365        C  0.29810193  0.48885414  0.99955961     0.00600
C366        C  0.26766119  0.44699911  0.98414903    -0.07900
C367        C  0.29035675  0.39680264  0.96752080     0.62500
H368        H  0.19058060  0.42102859  0.97304108     0.13200
H369        H  0.29764653  0.56480541  0.02899245     0.13200
C370        C  0.19739491  0.58561683  0.03978436     0.62800
F371        F  0.25370210  0.35969670  0.96147170    -0.22400
F372        F  0.32448695  0.37989023  0.00356198    -0.19700
F373        F  0.31464807  0.40264071  0.92157839    -0.19400
F374        F  0.16485524  0.57288912  0.07872223    -0.19500
F375        F  0.17061840  0.61058796  0.00238502    -0.19800
F376        F  0.23339499  0.61872712  0.05898837    -0.22500
C377        C  0.95764087  0.49567313  0.77421013    -0.05300
C378        C  0.00233729  0.50730176  0.80081199     0.00600
C379        C  0.04696270  0.51920557  0.77313617    -0.07900
C380        C  0.04495660  0.51765580  0.71992703    -0.05300
C381        C  0.00037068  0.50543187  0.69338074     0.00600
C382        C  0.95543392  0.49504430  0.72104171    -0.07900
C383        C  0.90484903  0.48449703  0.69528907     0.62500
H384        H  0.92372060  0.48725001  0.79572577     0.13200
H385        H  0.07884255  0.52595963  0.69831880     0.13200
C386        C  0.09683967  0.53292865  0.79884824     0.62800
F387        F  0.86524016  0.48358295  0.72953159    -0.22400
F388        F  0.90625813  0.43787668  0.67143530    -0.19700
F389        F  0.89443573  0.52194105  0.66021184    -0.19400
F390        F  0.11029443  0.49565704  0.83305507    -0.19500
F391        F  0.09207408  0.57881356  0.82369368    -0.19800
F392        F  0.13605639  0.53771171  0.76447525    -0.22500
C393        C  0.95808142  0.52046415  0.21929861    -0.05300
C394        C  0.00101836  0.50312495  0.19321784     0.00600
C395        C  0.04475222  0.48885653  0.22133508    -0.07900
C396        C  0.04327611  0.49209681  0.27446346    -0.05300
C397        C  0.00027268  0.50916804  0.30056780     0.00600
C398        C  0.95661172  0.52372693  0.27245352    -0.07900
C399        C  0.90808563  0.54168531  0.29769342     0.62500
H400        H  0.92508160  0.53127952  0.19745041     0.13200
H401        H  0.07626630  0.48125443  0.29630573     0.13200
C402        C  0.09335373  0.47110507  0.19611417     0.62800
F403        F  0.86892387  0.54766146  0.26320202    -0.22400
F404        F  0.91626841  0.58803232  0.32078339    -0.19700
F405        F  0.89245170  0.50670344  0.33332501    -0.19400
F406        F  0.10867671  0.50604439  0.16030215    -0.19500
F407        F  0.08547673  0.42458205  0.17327630    -0.19800
F408        F  0.13259715  0.46556256  0.23056915    -0.22500
C409        C  0.02526200  0.78536217  0.54257294    -0.05300
C410        C  0.01004493  0.81058597  0.49824946     0.00600
C411        C  0.99721659  0.78166703  0.45458711    -0.07900
C412        C  0.99947679  0.72860204  0.45756314    -0.05300
C413        C  0.01395834  0.70332196  0.50208738     0.00600
C414        C  0.02741133  0.73224126  0.54556535    -0.07900
C415        C  0.04284518  0.70784627  0.59541269     0.62500
H416        H  0.03502903  0.80787702  0.57553628     0.13200
H417        H  0.98956511  0.70612670  0.42461841     0.13200
C418        C  0.98170487  0.80596033  0.40467661     0.62800
F419        F  0.04860552  0.74318280  0.63382036    -0.22400
F420        F  0.08868012  0.68324927  0.58971121    -0.19700
F421        F  0.00616306  0.67364360  0.61053280    -0.19400
F422        F  0.01727861  0.84169283  0.39044649    -0.19500
F423        F  0.93483713  0.82868967  0.40977505    -0.19800
F424        F  0.97799589  0.77080345  0.36587029    -0.22500
C425        C  0.01140419  0.22696995  0.45761402    -0.05300
C426        C  0.00168636  0.20314797  0.50414405     0.00600
C427        C  0.99243584  0.23331752  0.54769520    -0.07900
C428        C  0.99411345  0.28632795  0.54285961    -0.05300
C429        C  0.00444951  0.31012884  0.49643676     0.00600
C430        C  0.01260523  0.27994120  0.45269177    -0.07900
C431        C  0.02129145  0.30295977  0.40068343     0.62500
H432        H  0.01794340  0.20345623  0.42462152     0.13200
H433        H  0.98755973  0.30988132  0.57580935     0.13200
C434        C  0.98181741  0.21024147  0.59932944     0.62800
F435        F  0.02050139  0.26669474  0.36275107    -0.22400
F436        F  0.06805132  0.32658777  0.39944479    -0.19700
F437        F  0.98364634  0.33775595  0.38997800    -0.19400
F438        F  0.01948317  0.17606844  0.61181827    -0.19500
F439        F  0.93540917  0.18586438  0.59849735    -0.19800
F440        F  0.98022638  0.24654485  0.63717148    -0.22500
C441        C  0.78439474  0.04972945  0.50834655    -0.05300
C442        C  0.80964101  0.00328896  0.50295244     0.00600
C443        C  0.78096201  0.95815526  0.49663523    -0.07900
C444        C  0.72784065  0.96148244  0.49589851    -0.05300
C445        C  0.70262673  0.00786218  0.50143610     0.00600
C446        C  0.73123104  0.05304996  0.50724270    -0.07900
C447        C  0.70622243  0.10475342  0.51054767     0.62500
H448        H  0.80688434  0.08378134  0.51285703     0.13200
H449        H  0.70530497  0.92746756  0.49134231     0.13200
C450        C  0.80575170  0.90642395  0.49203331     0.62800
F451        F  0.74130182  0.14367834  0.50770956    -0.22400
F452        F  0.68096073  0.10943933  0.55608008    -0.19700
F453        F  0.67229561  0.11068190  0.47095486    -0.19400
F454        F  0.83979106  0.89942897  0.53133675    -0.19500
F455        F  0.83075422  0.90267179  0.44626092    -0.19800
F456        F  0.77055485  0.86755077  0.49406391    -0.22500
C457        C  0.28569573  0.04978375  0.50247928    -0.05300
C458        C  0.30982179  0.00245104  0.50154273     0.00600
C459        C  0.28008910  0.95766525  0.50013642    -0.07900
C460        C  0.22702434  0.96211799  0.50072180    -0.05300
C461        C  0.20290924  0.00940949  0.50168513     0.00600
C462        C  0.23258054  0.05421752  0.50274952    -0.07900
C463        C  0.20859498  0.10639031  0.50560317     0.62500
H464        H  0.30907639  0.08360450  0.50331872     0.13200
H465        H  0.20363012  0.92830418  0.49991381     0.13200
C466        C  0.30388113  0.90544021  0.49634361     0.62800
F467        F  0.24439017  0.14399189  0.51351845    -0.22400
F468        F  0.17453027  0.10820202  0.54526639    -0.19700
F469        F  0.18366316  0.11688782  0.46073464    -0.19400
F470        F  0.32836410  0.89381892  0.54118106    -0.19500
F471        F  0.33824421  0.90430905  0.45690303    -0.19800
F472        F  0.26799272  0.86818923  0.48727300    -0.22500
C473        C  0.98897111  0.72240914  0.04362041    -0.05300
C474        C  0.99131107  0.69803160  0.99651624     0.00600
C475        C  0.99135735  0.72725202  0.95151463    -0.07900
C476        C  0.99020645  0.78035115  0.95564892    -0.05300
C477        C  0.99010635  0.80483253  0.00289974     0.00600
C478        C  0.98891166  0.77540887  0.04780015    -0.07900
C479        C  0.98770263  0.79938426  0.10000640     0.62500
H480        H  0.98877593  0.69934632  0.07750250     0.13200
H481        H  0.99076923  0.80337608  0.92173584     0.13200
C482        C  0.99177319  0.70281412  0.89938857     0.62800
F483        F  0.97825763  0.76412057  0.13756625    -0.22400
F484        F  0.94990117  0.83551053  0.10215020    -0.19700
F485        F  0.03412555  0.82153020  0.11010085    -0.19400
F486        F  0.95344919  0.66717939  0.89584812    -0.19500
F487        F  0.03794893  0.67966282  0.89118683    -0.19800
F488        F  0.98439344  0.73799976  0.86127155    -0.22500
C489        C  0.97963281  0.28161483  0.04013097    -0.05300
C490        C  0.98894993  0.30520234  0.99356518     0.00600
C491        C  0.99771227  0.27528293  0.94993313    -0.07900
C492        C  0.99693840  0.22221017  0.95471587    -0.05300
C493        C  0.98711152  0.19840477  0.00128257     0.00600
C494        C  0.97799108  0.22861043  0.04489384    -0.07900
C495        C  0.96757621  0.20556488  0.09655573     0.62500
H496        H  0.97305466  0.30537202  0.07287531     0.13200
H497        H  0.00372384  0.19873276  0.92181702     0.13200
C498        C  0.00951772  0.29914056  0.89900754     0.62800
F499        F  0.96652532  0.24188167  0.13441614    -0.22400
F500        F  0.00504497  0.17108573  0.10876167    -0.19700
F501        F  0.92099159  0.18154235  0.09598390    -0.19400
F502        F  0.05025708  0.33183108  0.90386419    -0.19500
F503        F  0.96785557  0.32565789  0.88166375    -0.19800
F504        F  0.02170536  0.26315102  0.86287385    -0.22500
C505        C  0.76906752  0.04063059  0.99316679    -0.05300
C506        C  0.79587754  0.99542311  0.00019993     0.00600
C507        C  0.76913189  0.94947678  0.00743978    -0.07900
C508        C  0.71588149  0.95011721  0.00525632    -0.05300
C509        C  0.68899532  0.99528844  0.99803512     0.00600
C510        C  0.71579122  0.04153768  0.99204723    -0.07900
C511        C  0.68852052  0.09141662  0.98314309     0.62500
H512        H  0.79040950  0.07535137  0.98834792     0.13200
H513        H  0.69464845  0.91537558  0.01038207     0.13200
C514        C  0.79659962  0.90057460  0.01995375     0.62800
F515        F  0.72194698  0.13022302  0.97190923    -0.22400
F516        F  0.66209566  0.10526589  0.02608727    -0.19700
F517        F  0.65516001  0.08651303  0.94290771    -0.19400
F518        F  0.82812411  0.90812829  0.06127065    -0.19500
F519        F  0.82513695  0.88508904  0.97899890    -0.19800
F520        F  0.76319376  0.86195019  0.03183067    -0.22500
C521        C  0.27111284  0.99068038  0.04962747    -0.05300
C522        C  0.29534529  0.99479912  0.00247615     0.00600
C523        C  0.26541278  0.00064252  0.95803351    -0.07900
C524        C  0.21246986  0.00301139  0.96271761    -0.05300
C525        C  0.18830186  0.99862638  0.00969474     0.00600
C526        C  0.21795997  0.99250361  0.05417678    -0.07900
C527        C  0.19403428  0.98912577  0.10632907     0.62500
H528        H  0.29434399  0.98621949  0.08317321     0.13200
H529        H  0.18917894  0.00747103  0.92920191     0.13200
C530        C  0.28857626  0.00209023  0.90549841     0.62800
F531        F  0.23000099  0.99113687  0.14456698    -0.22400
F532        F  0.16803236  0.94389946  0.11091929    -0.19700
F533        F  0.16094785  0.02906428  0.11341155    -0.19400
F534        F  0.32037191  0.96103817  0.89936891    -0.19500
F535        F  0.31548114  0.04654626  0.89916298    -0.19800
F536        F  0.25213580  0.99980702  0.86771250    -0.22500
C537        C  0.00290553  0.04760950  0.72638092    -0.05300
C538        C  0.00631948  0.00130656  0.70041468     0.00600
C539        C  0.00769212  0.95544418  0.72843423    -0.07900
C540        C  0.00453995  0.95788919  0.78163321    -0.05300
C541        C  0.00187960  0.00426227  0.80750201     0.00600
C542        C  0.00151978  0.05008624  0.77958472    -0.07900
C543        C  0.99885693  0.10142535  0.80555712     0.62500
H544        H  0.00225948  0.08221075  0.70442721     0.13200
H545        H  0.00505757  0.92338745  0.80374836     0.13200
C546        C  0.01139405  0.90406568  0.70265694     0.62800
F547        F  0.99211763  0.14035964  0.77118002    -0.22400
F548        F  0.04347201  0.11057790  0.83161185    -0.19700
F549        F  0.95864268  0.10246149  0.83900342    -0.19400
F550        F  0.05795326  0.89934844  0.67930063    -0.19500
F551        F  0.97323193  0.89899948  0.66697251    -0.19800
F552        F  0.00674031  0.86463753  0.73681822    -0.22500
C553        C  0.00195596  0.05114518  0.22398118    -0.05300
C554        C  0.99141549  0.00478330  0.20025225     0.00600
C555        C  0.98337129  0.96103449  0.23001353    -0.07900
C556        C  0.98802687  0.96489292  0.28281909    -0.05300
C557        C  0.00012637  0.01087494  0.30686485     0.00600
C558        C  0.00662621  0.05518018  0.27701063    -0.07900
C559        C  0.01733096  0.10669067  0.30047388     0.62500
H560        H  0.00758398  0.08412681  0.20033028     0.14800
H561        H  0.98280963  0.93142868  0.30587543     0.13200
C562        C  0.96892127  0.91066691  0.20629876     0.62800
F563        F  0.01571831  0.14504822  0.26483253    -0.22400
F564        F  0.06508581  0.10698168  0.32213136    -0.19700
F565        F  0.98146683  0.11740403  0.33702342    -0.19400
F566        F  0.00928029  0.89218505  0.17888984    -0.19500
F567        F  0.92756465  0.91697301  0.17463138    -0.19800
F568        F  0.95624745  0.87486053  0.24235980    -0.22500
loop_ 
_geom_bond_atom_site_label_1 
_geom_bond_atom_site_label_2 
_geom_bond_distance 
_geom_bond_site_symmetry_2 
_ccdc_geom_bond_type 
Zn1           O5   1.963       .  S
Zn1           O6   2.015       .  S
Zn1          O10   2.028       .  S
Zn1          O17   2.020       .  S
Zn2           O5   1.957   1_456  S
Zn2           O7   2.018       .  S
Zn2           O9   2.019       .  S
Zn2          O13   2.011       .  S
Zn3           O5   1.957   1_465  S
Zn3           O8   2.005       .  S
Zn3          O11   2.014       .  S
Zn3          O14   2.013       .  S
Zn4           O5   1.962   1_566  S
Zn4          O12   2.017       .  S
Zn4          O15   2.028       .  S
Zn4          O16   2.017       .  S
O6           C18   1.272       .  A
O7           C19   1.274   1_556  A
O8           C20   1.271   1_465  A
O9           C18   1.274   1_456  A
O10          C20   1.274       .  A
O11          C19   1.271   1_565  A
O12          C21   1.273   1_556  A
O13          C22   1.271   1_455  A
O14          C21   1.272   1_455  A
O15          C22   1.275   1_565  A
O16          C23   1.273   1_556  A
O17          C23   1.274   1_545  A
C18         C493   1.486       .  S
C19         C525   1.483   1_545  S
C20         C554   1.477       .  S
C21         C477   1.483       .  S
C22         C541   1.482   1_655  S
C23         C506   1.477       .  S
Zn24         O28   1.960   1_655  S
Zn24         O29   2.015       .  S
Zn24         O33   2.024       .  S
Zn24         O40   2.023       .  S
Zn25         O28   1.960       .  S
Zn25         O30   2.019       .  S
Zn25         O32   2.006       .  S
Zn25         O36   2.021       .  S
Zn26         O28   1.957   1_565  S
Zn26         O31   2.018       .  S
Zn26         O34   2.016       .  S
Zn26         O37   2.014       .  S
Zn27         O28   1.949   1_665  S
Zn27         O35   2.004       .  S
Zn27         O38   2.003       .  S
Zn27         O39   1.999       .  S
O29          C41   1.272   1_655  A
O30          C42   1.273       .  A
O31          C43   1.272   1_565  A
O32          C41   1.273       .  A
O33          C43   1.275   1_655  A
O34          C42   1.274   1_565  A
O35          C44   1.270   1_655  A
O36          C45   1.272       .  A
O37          C44   1.274       .  A
O38          C45   1.273   1_665  A
O39          C46   1.269   1_565  A
O40          C46   1.274       .  A
C41         C426   1.486       .  S
C42         C461   1.481       .  S
C43         C538   1.485       .  S
C44         C410   1.488       .  S
C45         C557   1.487       .  S
C46         C442   1.482       .  S
Zn47         O51   1.956   1_455  S
Zn47         O52   2.000       .  S
Zn47         O56   2.018       .  S
Zn47         O63   2.010       .  S
Zn48         O51   1.960       .  S
Zn48         O53   2.024       .  S
Zn48         O55   2.020       .  S
Zn48         O59   2.027       .  S
Zn49         O51   1.953   1_454  S
Zn49         O54   2.014       .  S
Zn49         O57   2.009       .  S
Zn49         O60   2.005       .  S
Zn50         O51   1.957   1_554  S
Zn50         O58   2.017       .  S
Zn50         O61   2.012       .  S
Zn50         O62   2.011       .  S
O52          C64   1.270       .  A
O53          C65   1.273       .  A
O54          C66   1.272       .  A
O55          C64   1.276   1_655  A
O56          C66   1.273   1_556  A
O57          C65   1.272   1_454  A
O58          C67   1.274       .  A
O59          C68   1.275       .  A
O60          C67   1.270   1_455  A
O61          C68   1.272   1_554  A
O62          C69   1.273   1_554  A
O63          C69   1.271   1_455  A
C64         C378   1.489       .  S
C65         C490   1.478       .  S
C66         C362   1.475       .  S
C67         C394   1.489   1_655  S
C68         C346   1.478       .  S
C69         C474   1.478       .  S
Zn70         O74   1.954   1_655  S
Zn70         O75   2.005       .  S
Zn70         O79   2.007       .  S
Zn70         O86   2.012       .  S
Zn71         O74   1.958       .  S
Zn71         O76   2.017       .  S
Zn71         O78   2.017       .  S
Zn71         O82   2.015       .  S
Zn72         O74   1.954       .  S
Zn72         O77   2.018       .  S
Zn72         O80   2.021       .  S
Zn72         O83   2.021       .  S
Zn73         O74   1.954   1_655  S
Zn73         O81   2.006       .  S
Zn73         O84   2.008       .  S
Zn73         O85   2.011       .  S
O75          C87   1.270   1_655  A
O76          C88   1.274       .  A
O77          C89   1.272       .  A
O78          C87   1.275       .  A
O79          C89   1.273   1_655  A
O80          C88   1.273       .  A
O81          C90   1.270   1_655  A
O82          C91   1.271       .  A
O83          C90   1.275       .  A
O84          C91   1.274   1_655  A
O85          C92   1.271       .  A
O86          C92   1.273       .  A
C87         C381   1.488       .  S
C88         C333   1.488       .  S
C89         C429   1.486       .  S
C90         C397   1.489       .  S
C91         C413   1.489       .  S
C92         C314   1.482       .  S
Zn93         O97   1.962       .  S
Zn93         O98   2.025       .  S
Zn93        O102   2.015       .  S
Zn93        O109   2.032       .  S
Zn94         O97   1.957   1_545  S
Zn94         O99   2.012       .  S
Zn94        O101   2.014       .  S
Zn94        O105   2.018       .  S
Zn95         O97   1.971   1_554  S
Zn95        O100   2.037       .  S
Zn95        O103   2.036       .  S
Zn95        O106   2.040       .  S
Zn96         O97   1.950   1_544  S
Zn96        O104   1.994       .  S
Zn96        O107   1.998       .  S
Zn96        O108   1.994       .  S
O98         C110   1.275       .  A
O99         C111   1.272   1_546  A
O100        C112   1.277   1_554  A
O101        C110   1.272   1_545  A
O102        C112   1.273       .  A
O103        C111   1.276       .  A
O104        C113   1.269   1_545  A
O105        C114   1.273   1_556  A
O106        C113   1.276       .  A
O107        C114   1.269       .  A
O108        C115   1.269   1_544  A
O109        C115   1.274       .  A
C110        C282   1.486       .  S
C111        C522   1.489       .  S
C112        C253   1.490       .  S
C113        C298   1.482       .  S
C114        C266   1.479       .  S
C115        C509   1.478       .  S
Zn116       O120   1.959   1_565  S
Zn116       O121   2.020       .  S
Zn116       O125   2.016       .  S
Zn116       O132   2.015       .  S
Zn117       O120   1.956       .  S
Zn117       O122   2.016       .  S
Zn117       O124   2.015       .  S
Zn117       O128   2.011       .  S
Zn118       O120   1.956   1_565  S
Zn118       O123   2.019       .  S
Zn118       O126   2.015       .  S
Zn118       O129   2.017       .  S
Zn119       O120   1.960       .  S
Zn119       O127   2.016       .  S
Zn119       O130   2.015       .  S
Zn119       O131   2.007       .  S
O121        C133   1.274   1_565  A
O122        C134   1.273       .  A
O123        C135   1.275       .  A
O124        C133   1.272       .  A
O125        C135   1.271       .  A
O126        C134   1.272   1_565  A
O127        C136   1.272   1_545  A
O128        C137   1.272       .  A
O129        C136   1.274       .  A
O130        C137   1.273       .  A
O131        C138   1.271       .  A
O132        C138   1.274   1_565  A
C133        C301   1.485   1_545  S
C134        C458   1.482       .  S
C135        C218   1.491       .  S
C136        C285   1.479       .  S
C137        C234   1.480       .  S
C138        C445   1.481       .  S
Zn139       O143   1.959   1_554  S
Zn139       O144   2.016       .  S
Zn139       O148   2.018       .  S
Zn139       O155   2.011       .  S
Zn140       O143   1.959       .  S
Zn140       O145   2.021       .  S
Zn140       O147   2.019       .  S
Zn140       O151   2.019       .  S
Zn141       O143   1.957   1_554  S
Zn141       O146   2.012       .  S
Zn141       O149   2.013       .  S
Zn141       O152   2.017       .  S
Zn142       O143   1.956       .  S
Zn142       O150   2.011       .  S
Zn142       O153   2.012       .  S
Zn142       O154   2.016       .  S
O144        C156   1.272       .  A
O145        C157   1.275   1_556  A
O146        C158   1.271       .  A
O147        C156   1.275   1_556  A
O148        C158   1.274       .  A
O149        C157   1.272       .  A
O150        C159   1.271       .  A
O151        C160   1.274       .  A
O152        C159   1.274   1_554  A
O153        C160   1.271       .  A
O154        C161   1.272       .  A
O155        C161   1.274   1_554  A
C156        C250   1.487       .  S
C157        C349   1.489       .  S
C158        C202   1.483       .  S
C159        C269   1.479       .  S
C160        C186   1.487       .  S
C161        C365   1.489       .  S
Zn162       O166   1.959       .  S
Zn162       O167   2.014       .  S
Zn162       O171   2.014       .  S
Zn162       O178   2.018       .  S
Zn163       O166   1.956       .  S
Zn163       O168   2.010       .  S
Zn163       O170   2.016       .  S
Zn163       O174   2.006       .  S
Zn164       O166   1.957       .  S
Zn164       O169   2.012       .  S
Zn164       O172   2.012       .  S
Zn164       O175   2.008       .  S
Zn165       O166   1.961       .  S
Zn165       O173   2.025       .  S
Zn165       O176   2.026       .  S
Zn165       O177   2.023       .  S
O167        C179   1.272       .  A
O168        C180   1.271       .  A
O169        C181   1.273       .  A
O170        C179   1.273       .  A
O171        C181   1.272       .  A
O172        C180   1.273       .  A
O173        C182   1.275       .  A
O174        C183   1.273       .  A
O175        C182   1.271       .  A
O176        C183   1.273       .  A
O177        C184   1.274       .  A
O178        C184   1.273       .  A
C179        C330   1.476       .  S
C180        C237   1.480       .  S
C181        C205   1.481       .  S
C182        C317   1.482       .  S
C183        C189   1.488       .  S
C184        C221   1.477       .  S
C185        C186   1.406       .  A
C185        C190   1.408       .  A
C185        H192   1.083       .  S
C186        C187   1.420       .  A
C187        C188   1.406       .  A
C187        C194   1.521       .  S
C188        C189   1.406       .  A
C188        H193   1.083       .  S
C189        C190   1.420       .  A
C190        C191   1.520       .  S
C191        F195   1.385       .  S
C191        F196   1.382       .  S
C191        F197   1.384       .  S
C194        F198   1.383       .  S
C194        F199   1.383       .  S
C194        F200   1.385       .  S
C201        C202   1.405       .  A
C201        C206   1.407       .  A
C201        H208   1.083       .  S
C202        C203   1.420       .  A
C203        C204   1.406       .  A
C203        C210   1.521       .  S
C204        C205   1.403       .  A
C204        H209   1.083       .  S
C205        C206   1.419       .  A
C206        C207   1.520       .  S
C207        F211   1.385       .  S
C207        F212   1.382       .  S
C207        F213   1.384       .  S
C210        F214   1.384       .  S
C210        F215   1.383       .  S
C210        F216   1.385       .  S
C217        C218   1.407       .  A
C217        C222   1.406       .  A
C217        H224   1.084       .  S
C218        C219   1.425       .  A
C219        C220   1.409       .  A
C219        C226   1.521       .  S
C220        C221   1.401       .  A
C220        H225   1.084       .  S
C221        C222   1.414       .  A
C222        C223   1.519       .  S
C223        F227   1.385       .  S
C223        F228   1.382       .  S
C223        F229   1.384       .  S
C226        F230   1.383       .  S
C226        F231   1.384       .  S
C226        F232   1.385       .  S
C233        C234   1.404       .  A
C233        C238   1.407       .  A
C233        H240   1.083       .  S
C234        C235   1.419       .  A
C235        C236   1.405       .  A
C235        C242   1.520       .  S
C236        C237   1.403       .  A
C236        H241   1.083       .  S
C237        C238   1.419       .  A
C238        C239   1.520       .  S
C239        F243   1.385       .  S
C239        F244   1.382       .  S
C239        F245   1.384       .  S
C242        F246   1.383       .  S
C242        F247   1.384       .  S
C242        F248   1.385       .  S
C249        C250   1.403   1_556  A
C249        C254   1.406       .  A
C249        H256   1.085       .  S
C250        C251   1.421       .  A
C251        C252   1.410       .  A
C251        C258   1.521       .  S
C252        C253   1.406   1_554  A
C252        H257   1.085       .  S
C253        C254   1.422       .  A
C254        C255   1.521       .  S
C255        F259   1.385       .  S
C255        F260   1.384   1_556  S
C255        F261   1.383       .  S
C258        F262   1.383       .  S
C258        F263   1.384   1_554  S
C258        F264   1.385       .  S
C265        C266   1.403   1_556  A
C265        C270   1.406       .  A
C265        H272   1.083       .  S
C266        C267   1.418       .  A
C267        C268   1.406       .  A
C267        C274   1.521       .  S
C268        C269   1.403   1_554  A
C268        H273   1.083       .  S
C269        C270   1.419       .  A
C270        C271   1.520       .  S
C271        F275   1.385       .  S
C271        F276   1.384       .  S
C271        F277   1.382       .  S
C274        F278   1.382       .  S
C274        F279   1.384       .  S
C274        F280   1.385       .  S
C281        C282   1.406       .  A
C281        C286   1.408       .  A
C281        H288   1.083       .  S
C282        C283   1.421       .  A
C283        C284   1.406       .  A
C283        C290   1.518       .  S
C284        C285   1.401       .  A
C284        H289   1.083   1_565  S
C285        C286   1.417       .  A
C286        C287   1.519       .  S
C287        F291   1.385       .  S
C287        F292   1.382   1_565  S
C287        F293   1.383       .  S
C290        F294   1.382   1_565  S
C290        F295   1.382       .  S
C290        F296   1.385       .  S
C297        C298   1.402       .  A
C297        C302   1.408       .  A
C297        H304   1.083       .  S
C298        C299   1.420       .  A
C299        C300   1.407       .  A
C299        C306   1.521       .  S
C300        C301   1.404       .  A
C300        H305   1.083       .  S
C301        C302   1.421       .  A
C302        C303   1.520   1_565  S
C303        F307   1.385   1_545  S
C303        F308   1.383       .  S
C303        F309   1.384   1_545  S
C306        F310   1.383   1_565  S
C306        F311   1.384       .  S
C306        F312   1.385       .  S
C313        C314   1.404       .  A
C313        C318   1.406       .  A
C313        H320   1.083       .  S
C314        C315   1.419       .  A
C315        C316   1.407       .  A
C315        C322   1.520       .  S
C316        C317   1.404       .  A
C316        H321   1.083       .  S
C317        C318   1.420       .  A
C318        C319   1.521       .  S
C319        F323   1.385       .  S
C319        F324   1.383       .  S
C319        F325   1.383       .  S
C322        F326   1.383       .  S
C322        F327   1.384       .  S
C322        F328   1.385       .  S
C329        C330   1.401       .  A
C329        C334   1.407       .  A
C329        H336   1.082       .  S
C330        C331   1.415       .  A
C331        C332   1.407       .  A
C331        C338   1.520       .  S
C332        C333   1.407       .  A
C332        H337   1.082       .  S
C333        C334   1.422       .  A
C334        C335   1.520       .  S
C335        F339   1.385       .  S
C335        F340   1.383       .  S
C335        F341   1.383       .  S
C338        F342   1.382       .  S
C338        F343   1.384       .  S
C338        F344   1.385       .  S
C345        C346   1.401   1_554  A
C345        C350   1.408       .  A
C345        H352   1.084       .  S
C346        C347   1.416       .  A
C347        C348   1.407       .  A
C347        C354   1.520       .  S
C348        C349   1.407   1_556  A
C348        H353   1.084       .  S
C349        C350   1.423       .  A
C350        C351   1.521       .  S
C351        F355   1.385       .  S
C351        F356   1.383   1_554  S
C351        F357   1.383       .  S
C354        F358   1.383       .  S
C354        F359   1.383   1_556  S
C354        F360   1.385       .  S
C361        C362   1.401   1_556  A
C361        C366   1.408       .  A
C361        H368   1.084       .  S
C362        C363   1.413       .  A
C363        C364   1.405       .  A
C363        C370   1.519       .  S
C364        C365   1.408   1_554  A
C364        H369   1.083       .  S
C365        C366   1.424       .  A
C366        C367   1.521       .  S
C367        F371   1.385       .  S
C367        F372   1.384   1_556  S
C367        F373   1.383       .  S
C370        F374   1.384       .  S
C370        F375   1.382       .  S
C370        F376   1.385       .  S
C377        C378   1.404   1_655  A
C377        C382   1.405       .  A
C377        H384   1.085       .  S
C378        C379   1.423       .  A
C379        C380   1.406       .  A
C379        C386   1.522       .  S
C380        C381   1.405       .  A
C380        H385   1.085       .  S
C381        C382   1.422   1_455  A
C382        C383   1.522       .  S
C383        F387   1.385       .  S
C383        F388   1.383       .  S
C383        F389   1.384       .  S
C386        F390   1.384       .  S
C386        F391   1.383       .  S
C386        F392   1.385       .  S
C393        C394   1.405   1_655  A
C393        C398   1.407       .  A
C393        H400   1.082       .  S
C394        C395   1.422       .  A
C395        C396   1.406       .  A
C395        C402   1.522       .  S
C396        C397   1.405       .  A
C396        H401   1.082       .  S
C397        C398   1.423   1_455  A
C398        C399   1.522       .  S
C399        F403   1.385       .  S
C399        F404   1.383       .  S
C399        F405   1.384       .  S
C402        F406   1.384       .  S
C402        F407   1.383       .  S
C402        F408   1.385       .  S
C409        C410   1.406       .  A
C409        C414   1.407       .  A
C409        H416   1.084       .  S
C410        C411   1.422   1_455  A
C411        C412   1.405       .  A
C411        C418   1.522       .  S
C412        C413   1.406   1_655  A
C412        H417   1.083       .  S
C413        C414   1.422       .  A
C414        C415   1.521       .  S
C415        F419   1.385       .  S
C415        F420   1.383       .  S
C415        F421   1.384       .  S
C418        F422   1.384   1_655  S
C418        F423   1.383       .  S
C418        F424   1.385       .  S
C425        C426   1.406       .  A
C425        C430   1.406       .  A
C425        H432   1.084       .  S
C426        C427   1.420   1_455  A
C427        C428   1.407       .  A
C427        C434   1.521       .  S
C428        C429   1.406   1_655  A
C428        H433   1.083       .  S
C429        C430   1.420       .  A
C430        C431   1.521       .  S
C431        F435   1.385       .  S
C431        F436   1.383       .  S
C431        F437   1.384   1_455  S
C434        F438   1.384   1_655  S
C434        F439   1.383       .  S
C434        F440   1.385       .  S
C441        C442   1.404       .  A
C441        C446   1.407       .  A
C441        H448   1.083       .  S
C442        C443   1.420   1_545  A
C443        C444   1.405       .  A
C443        C450   1.521       .  S
C444        C445   1.403   1_565  A
C444        H449   1.083       .  S
C445        C446   1.419       .  A
C446        C447   1.521       .  S
C447        F451   1.385       .  S
C447        F452   1.382       .  S
C447        F453   1.384       .  S
C450        F454   1.384       .  S
C450        F455   1.383       .  S
C450        F456   1.385       .  S
C457        C458   1.404       .  A
C457        C462   1.407       .  A
C457        H464   1.085       .  S
C458        C459   1.419   1_545  A
C459        C460   1.406       .  A
C459        C466   1.520       .  S
C460        C461   1.403   1_565  A
C460        H465   1.085       .  S
C461        C462   1.418       .  A
C462        C463   1.520       .  S
C463        F467   1.385       .  S
C463        F468   1.384       .  S
C463        F469   1.382       .  S
C466        F470   1.382       .  S
C466        F471   1.384       .  S
C466        F472   1.385       .  S
C473        C474   1.401   1_554  A
C473        C478   1.404       .  A
C473        H480   1.083       .  S
C474        C475   1.418       .  A
C475        C476   1.407       .  A
C475        C482   1.519       .  S
C476        C477   1.404   1_556  A
C476        H481   1.084       .  S
C477        C478   1.419       .  A
C478        C479   1.517       .  S
C479        F483   1.385       .  S
C479        F484   1.383       .  S
C479        F485   1.382   1_655  S
C482        F486   1.383       .  S
C482        F487   1.382   1_655  S
C482        F488   1.385       .  S
C489        C490   1.402   1_554  A
C489        C494   1.407       .  A
C489        H496   1.082       .  S
C490        C491   1.416       .  A
C491        C492   1.408       .  A
C491        C498   1.519   1_655  S
C492        C493   1.407   1_556  A
C492        H497   1.082   1_655  S
C493        C494   1.421       .  A
C494        C495   1.521       .  S
C495        F499   1.385       .  S
C495        F500   1.384   1_655  S
C495        F501   1.383       .  S
C498        F502   1.384       .  S
C498        F503   1.382   1_455  S
C498        F504   1.385       .  S
C505        C506   1.402   1_546  A
C505        C510   1.407       .  A
C505        H512   1.083       .  S
C506        C507   1.417       .  A
C507        C508   1.407       .  A
C507        C514   1.519       .  S
C508        C509   1.403   1_554  A
C508        H513   1.083       .  S
C509        C510   1.420   1_565  A
C510        C511   1.521       .  S
C511        F515   1.385       .  S
C511        F516   1.382   1_556  S
C511        F517   1.384       .  S
C514        F518   1.384       .  S
C514        F519   1.382   1_554  S
C514        F520   1.385       .  S
C521        C522   1.406       .  A
C521        C526   1.410       .  A
C521        H528   1.083       .  S
C522        C523   1.422   1_564  A
C523        C524   1.405       .  A
C523        C530   1.519       .  S
C524        C525   1.402   1_546  A
C524        H529   1.083       .  S
C525        C526   1.419       .  A
C526        C527   1.520       .  S
C527        F531   1.385       .  S
C527        F532   1.382       .  S
C527        F533   1.384   1_565  S
C530        F534   1.382   1_545  S
C530        F535   1.382       .  S
C530        F536   1.385   1_545  S
C537        C538   1.404       .  A
C537        C542   1.407       .  A
C537        H544   1.083       .  S
C538        C539   1.421   1_545  A
C539        C540   1.409       .  A
C539        C546   1.521       .  S
C540        C541   1.403   1_565  A
C540        H545   1.083       .  S
C541        C542   1.419       .  A
C542        C543   1.520   1_455  S
C543        F547   1.384       .  S
C543        F548   1.383   1_655  S
C543        F549   1.384       .  S
C546        F550   1.383       .  S
C546        F551   1.383   1_455  S
C546        F552   1.385       .  S
C553        C554   1.402   1_455  A
C553        C558   1.409       .  A
C553        H560   1.083       .  S
C554        C555   1.415   1_545  A
C555        C556   1.403       .  A
C555        C562   1.517       .  S
C556        C557   1.405   1_665  A
C556        H561   1.083       .  S
C557        C558   1.423       .  A
C558        C559   1.520       .  S
C559        F563   1.385       .  S
C559        F564   1.383       .  S
C559        F565   1.384   1_455  S
C562        F566   1.380   1_655  S
C562        F567   1.384       .  S
C562        F568   1.385       .  S
