geometry optimzed in LAMMPS
_audit_creation_date              2020-12-01 
_audit_creation_method            'lammps2cif' 
_symmetry_space_group_name_H-M    'P1' 
_symmetry_Int_Tables_number       1 
_symmetry_cell_setting            triclinic 
loop_ 
_symmetry_equiv_pos_as_xyz 
  x,y,z 
_cell_length_a                    29.03897314 
_cell_length_b                    30.892045587836463 
_cell_length_c                    25.572191176744298 
_cell_angle_alpha                 89.90036546655662 
_cell_angle_beta                  90.13873204994772 
_cell_angle_gamma                 90.61388238720075 
loop_ 
_atom_site_label 
_atom_site_type_symbol 
_atom_site_fract_x 
_atom_site_fract_y 
_atom_site_fract_z 
_atom_site_charge 
O1          O  0.04464766  0.20251436  0.44328936    -0.74300
O2          O  0.04223612  0.29341279  0.55506876    -0.75300
O3          O  0.04576370  0.20107406  0.55382068    -0.63900
O4          O  0.04127918  0.29464430  0.44478584    -0.72400
O5          O  0.46495423  0.29130144  0.44491052    -0.71900
O6          O  0.46938906  0.19832050  0.55492024    -0.63200
O7          O  0.46591279  0.28996237  0.55540949    -0.75700
O8          O  0.46827335  0.19959840  0.44348269    -0.74400
Cu9        Cu  0.04614552  0.24799731  0.49921393     1.04600
Cu10       Cu  0.46449209  0.24462156  0.49970744     1.04300
C11         C  0.50684616  0.18650855  0.42592194     0.91900
C12         C  0.00355947  0.30654799  0.57234344     0.91000
C13         C  0.00825083  0.18480237  0.57150788     0.83100
C14         C  0.50247930  0.30817357  0.42807166     0.89400
C15         C  0.49666857  0.45784566  0.28882748     0.85100
C16         C  0.45427975  0.46556372  0.25402611    -0.55100
C17         C  0.45556031  0.00362023  0.22638183     0.08000
C18         C  0.50006442  0.03035243  0.23584350     0.19000
C19         C  0.03702730  0.46100625  0.25048822    -0.55900
C20         C  0.03995846  0.99922723  0.22330025     0.08100
C21         C  0.50093695  0.99841244  0.32285262    -0.55400
C22         C  0.00251212  0.03611912  0.29534280     0.08700
H23         H  0.42676745  0.44210952  0.24893571     0.13200
H24         H  0.50145439  0.06178113  0.21495894    -0.01100
H25         H  0.06100707  0.43465976  0.24560800     0.13500
H26         H  0.50236682  0.99743132  0.36530972     0.13300
C27         C  0.99582747  0.45599206  0.71050626     0.85100
C28         C  0.03402451  0.45853922  0.75184561    -0.55100
C29         C  0.03549036  0.99649448  0.77931767     0.08000
C30         C  0.99777165  0.02867083  0.76291482     0.19000
C31         C  0.45165062  0.46475814  0.74180219    -0.55900
C32         C  0.45233680  0.00276149  0.76936109     0.08100
C33         C  0.00300809  0.99625967  0.67647693    -0.55400
C34         C  0.50391470  0.03418318  0.70350366     0.08700
H35         H  0.05837411  0.43259138  0.75809064     0.13200
H36         H  0.99887789  0.05982444  0.78438906    -0.01100
H37         H  0.42373133  0.44159306  0.74579510     0.13500
H38         H  0.00642530  0.99491795  0.63419894     0.13300
O39         O  0.29708297  0.06224309  0.94243400    -0.74300
O40         O  0.19913341  0.06098472  0.05416535    -0.75300
O41         O  0.29810913  0.06463875  0.05376010    -0.63900
O42         O  0.19804727  0.05812555  0.94312479    -0.72400
O43         O  0.19959794  0.48655390  0.94926659    -0.71900
O44         O  0.30054853  0.49275828  0.05414693    -0.63200
O45         O  0.20444922  0.48940243  0.05874467    -0.75700
O46         O  0.29657908  0.49031586  0.94317748    -0.74400
Cu47       Cu  0.24811786  0.06418842  0.99820853     1.04600
Cu48       Cu  0.25051670  0.48741455  0.00128764     1.04300
C49         C  0.31169636  0.02622487  0.92488007     0.91900
C50         C  0.18667017  0.02474655  0.07413050     0.91000
C51         C  0.31453803  0.02926908  0.07154675     0.83100
C52         C  0.18218959  0.02084735  0.93002802     0.89400
C53         C  0.08531155  0.97007160  0.85206642    -0.14700
C54         C  0.07038018  0.00457306  0.82077009     0.07400
C55         C  0.09078511  0.04564794  0.82756191    -0.14700
C56         C  0.12688017  0.05154358  0.86357598    -0.14700
C57         C  0.14301426  0.01638474  0.89318245     0.07400
C58         C  0.12121501  0.97583847  0.88756698    -0.14700
H59         H  0.06944848  0.43830170  0.84883187     0.11400
H60         H  0.08000486  0.07277570  0.80381059     0.11400
H61         H  0.14278782  0.08324414  0.86738897     0.11400
H62         H  0.13205994  0.94823475  0.91048704     0.11400
C63         C  0.36960855  0.99850154  0.79818093    -0.14700
C64         C  0.41474806  0.01428825  0.80635952     0.07400
C65         C  0.42424323  0.03789617  0.85226350    -0.14700
C66         C  0.38994248  0.04380444  0.88999309    -0.14700
C67         C  0.34600659  0.02548302  0.88282056     0.07400
C68         C  0.33589214  0.00337116  0.83643762    -0.14700
H69         H  0.36043951  0.98137789  0.76271668     0.11400
H70         H  0.45858710  0.05004305  0.86040569     0.11400
H71         H  0.39833878  0.06071988  0.92589993     0.11400
H72         H  0.30195009  0.98939744  0.83011967     0.11400
C73         C  0.11057624  0.04664684  0.11081735    -0.14700
C74         C  0.15122751  0.02276492  0.11500598     0.07400
C75         C  0.15645331  0.99375228  0.15658793    -0.14700
C76         C  0.12116975  0.98764280  0.19269468    -0.14700
C77         C  0.07896099  0.00929247  0.18711014     0.07400
C78         C  0.07453515  0.03970180  0.14635024    -0.14700
H79         H  0.10586633  0.06908048  0.07869366     0.11400
H80         H  0.18788243  0.97547229  0.16091531     0.11400
H81         H  0.12722640  0.46553594  0.22472456     0.11400
H82         H  0.04293169  0.05716898  0.14058299     0.11400
C83         C  0.39249371  0.04820685  0.10728322    -0.14700
C84         C  0.34875851  0.02938861  0.11384298     0.05400
C85         C  0.33900959  0.00601498  0.15946466    -0.14700
C86         C  0.37292624  0.50001264  0.19729720    -0.14700
C87         C  0.41798681  0.01600430  0.18953286     0.07400
C88         C  0.42702122  0.04133686  0.14478462    -0.14700
H89         H  0.40061691  0.06609420  0.07196124     0.11400
H90         H  0.30522560  0.49155364  0.16527588     0.11400
H91         H  0.36391694  0.48184518  0.23207357     0.11400
H92         H  0.46112003  0.05414199  0.13731779     0.11400
C93         C  0.04031646  0.37022697  0.38161484    -0.14700
C94         C  0.50104551  0.34435404  0.39015023     0.07400
C95         C  0.45995747  0.35479681  0.36423384    -0.14700
C96         C  0.45806856  0.39049929  0.33060902    -0.14700
C97         C  0.49738384  0.41677436  0.32210200     0.07400
C98         C  0.03833108  0.40618344  0.34861144    -0.14700
H99         H  0.07236805  0.36341274  0.40158334     0.11400
H100        H  0.42897129  0.33567425  0.37049176     0.11400
H101        H  0.42517995  0.39777926  0.31326936     0.11400
H102        H  0.06892184  0.42621267  0.34415827     0.11400
C103        C  0.04578754  0.08868038  0.35047801    -0.14700
C104        C  0.00608240  0.07822327  0.32177023     0.07400
C105        C  0.46794253  0.10551904  0.32361404    -0.14700
C106        C  0.46857356  0.14175458  0.35634604    -0.14700
C107        C  0.00774910  0.15147787  0.38676961     0.07400
C108        C  0.04685083  0.12536137  0.38227236    -0.14700
H109        H  0.07538012  0.06763830  0.34952475     0.11400
H110        H  0.43694837  0.09753170  0.30185434     0.11400
H111        H  0.43807963  0.16150992  0.35889407     0.11400
H112        H  0.07743000  0.13202089  0.40534702     0.11400
C113        C  0.04166656  0.36689641  0.62184435    -0.14700
C114        C  0.00207053  0.34212172  0.61081496     0.07400
C115        C  0.46023768  0.35349876  0.63416072    -0.14700
C116        C  0.45776317  0.38930268  0.66721521    -0.14700
C117        C  0.99727772  0.41469531  0.67799083     0.07400
C118        C  0.03916524  0.40293911  0.65453046    -0.14700
H119        H  0.07434478  0.35926624  0.60394622     0.11400
H120        H  0.42899636  0.33524971  0.62596824     0.11400
H121        H  0.42426629  0.39741702  0.68208141     0.11400
H122        H  0.07002919  0.42223046  0.66090480     0.11400
C123        C  0.47304137  0.14219757  0.64506365    -0.14700
C124        C  0.50976788  0.14923766  0.61021101     0.07400
C125        C  0.04683720  0.12038868  0.61046333    -0.14700
C126        C  0.04588023  0.08381073  0.64270981    -0.14700
C127        C  0.50850672  0.07615897  0.67627919     0.07400
C128        C  0.47273342  0.10617395  0.67838892    -0.14700
H129        H  0.44417885  0.16409959  0.64578703     0.11400
H130        H  0.07547759  0.12496372  0.58389346     0.11400
H131        H  0.07365429  0.06076052  0.64041890     0.11400
H132        H  0.44342309  0.10046515  0.70370564     0.11400
O133        O  0.04464925  0.70251403  0.44329415    -0.74300
O134        O  0.04223435  0.79341436  0.55507071    -0.75300
O135        O  0.04576279  0.70107638  0.55382570    -0.63900
O136        O  0.04127946  0.79464432  0.44478814    -0.72400
O137        O  0.46495429  0.79130213  0.44491186    -0.71900
O138        O  0.46938803  0.69832222  0.55492239    -0.63200
O139        O  0.46591081  0.78996393  0.55541138    -0.75700
O140        O  0.46827482  0.69959918  0.44348459    -0.74400
Cu141      Cu  0.04614530  0.74799823  0.49921761     1.04600
Cu142      Cu  0.46449176  0.74462264  0.49970904     1.04300
C143        C  0.50684795  0.68650867  0.42592548     0.91900
C144        C  0.00355770  0.80654949  0.57234544     0.91000
C145        C  0.00824942  0.68480461  0.57151166     0.83100
C146        C  0.50247973  0.80817382  0.42807334     0.89400
C147        C  0.49667488  0.95784471  0.28882674     0.85100
C148        C  0.45428744  0.96556222  0.25402302    -0.55100
C149        C  0.45555146  0.50362168  0.22638463     0.08000
C150        C  0.50005642  0.53035377  0.23584449     0.19000
C151        C  0.03703529  0.96100546  0.25049016    -0.55900
C152        C  0.03994972  0.49922822  0.22329883     0.08100
C153        C  0.50093297  0.49841306  0.32285334    -0.55400
C154        C  0.00250758  0.53611998  0.29534407     0.08700
H155        H  0.42677483  0.94210876  0.24893196     0.13200
H156        H  0.50144648  0.56178246  0.21496023    -0.01100
H157        H  0.06101536  0.93465880  0.24561162     0.13500
H158        H  0.50236601  0.49743164  0.36531072     0.13300
C159        C  0.99583113  0.95599275  0.71051001     0.85100
C160        C  0.03402901  0.95853881  0.75184844    -0.55100
C161        C  0.03548326  0.49649450  0.77931559     0.08000
C162        C  0.99776327  0.52866940  0.76291283     0.19000
C163        C  0.45165503  0.96476125  0.74180627    -0.55900
C164        C  0.45232972  0.50275800  0.76935784     0.08100
C165        C  0.00300314  0.49625997  0.67647419    -0.55400
C166        C  0.50390725  0.53418292  0.70350205     0.08700
H167        H  0.05837751  0.93259027  0.75809279     0.13200
H168        H  0.99886795  0.55982270  0.78438755    -0.01100
H169        H  0.42373389  0.94159813  0.74579943     0.13500
H170        H  0.00642242  0.49491949  0.63419615     0.13300
O171        O  0.29707458  0.56223842  0.94243045    -0.74300
O172        O  0.19912586  0.56098386  0.05416353    -0.75300
O173        O  0.29810211  0.56463506  0.05375692    -0.63900
O174        O  0.19803866  0.55812429  0.94312326    -0.72400
O175        O  0.19960945  0.98655523  0.94926703    -0.71900
O176        O  0.30055736  0.99276223  0.05414980    -0.63200
O177        O  0.20445845  0.98940349  0.05874540    -0.75700
O178        O  0.29659034  0.99032049  0.94318104    -0.74400
Cu179      Cu  0.24811016  0.56418574  0.99820603     1.04600
Cu180      Cu  0.25052698  0.98741732  0.00128961     1.04300
C181        C  0.31168613  0.52621967  0.92487591     0.91900
C182        C  0.18666163  0.52474604  0.07412904     0.91000
C183        C  0.31453018  0.52926497  0.07154385     0.83100
C184        C  0.18217930  0.52084649  0.93002742     0.89400
C185        C  0.08529866  0.47007330  0.85206902    -0.14700
C186        C  0.07037097  0.50457380  0.82076951     0.07400
C187        C  0.09077779  0.54564792  0.82755900    -0.14700
C188        C  0.12687227  0.55154325  0.86357372    -0.14700
C189        C  0.14300331  0.51638490  0.89318304     0.07400
C190        C  0.12120126  0.47583976  0.88757038    -0.14700
H191        H  0.06946301  0.93829921  0.84882848     0.11400
H192        H  0.07999995  0.57277445  0.80380481     0.11400
H193        H  0.14278209  0.58324317  0.86738469     0.11400
H194        H  0.13204331  0.44823652  0.91049319     0.11400
C195        C  0.36960171  0.49849112  0.79817974    -0.14700
C196        C  0.41473988  0.51428258  0.80635640     0.07400
C197        C  0.42423250  0.53789424  0.85225797    -0.14700
C198        C  0.38993104  0.54380229  0.88998686    -0.14700
C199        C  0.34599673  0.52547650  0.88281644     0.07400
C200        C  0.33588474  0.50336028  0.83643611    -0.14700
H201        H  0.36043413  0.48136492  0.76271747     0.11400
H202        H  0.45857501  0.55004530  0.86039921     0.11400
H203        H  0.39832561  0.56072107  0.92589127     0.11400
H204        H  0.30194386  0.48938310  0.83011928     0.11400
C205        C  0.11056687  0.54664571  0.11081426    -0.14700
C206        C  0.15121898  0.52276520  0.11500461     0.07400
C207        C  0.15644525  0.49375449  0.15658817    -0.14700
C208        C  0.12116149  0.48764519  0.19269479    -0.14700
C209        C  0.07895202  0.50929342  0.18710849     0.07400
C210        C  0.07452551  0.53970089  0.14634715    -0.14700
H211        H  0.10585641  0.56907751  0.07868937     0.11400
H212        H  0.18787474  0.47547502  0.16091669     0.11400
H213        H  0.12723438  0.96553195  0.22472353     0.11400
H214        H  0.04292140  0.55716689  0.14057916     0.11400
C215        C  0.39248402  0.54820669  0.10728454    -0.14700
C216        C  0.34875067  0.52938389  0.11384075     0.05400
C217        C  0.33900270  0.50600762  0.15946102    -0.14700
C218        C  0.37293411  0.00001757  0.19729911    -0.14700
C219        C  0.41797754  0.51600385  0.18953442     0.07400
C220        C  0.42701082  0.54133877  0.14478753    -0.14700
H221        H  0.40060665  0.56609699  0.07196441     0.11400
H222        H  0.30523108  0.99156443  0.16528186     0.11400
H223        H  0.36392477  0.98185201  0.23207615     0.11400
H224        H  0.46110801  0.55414771  0.13732317     0.11400
C225        C  0.04031796  0.87022774  0.38161948    -0.14700
C226        C  0.50104690  0.84435402  0.39015156     0.07400
C227        C  0.45996058  0.85479552  0.36423154    -0.14700
C228        C  0.45807331  0.89049778  0.33060588    -0.14700
C229        C  0.49738869  0.91677389  0.32210199     0.07400
C230        C  0.03833392  0.90618387  0.34861530    -0.14700
H231        H  0.07236853  0.86341461  0.40159102     0.11400
H232        H  0.42897459  0.83567215  0.37048697     0.11400
H233        H  0.42518574  0.89777692  0.31326360     0.11400
H234        H  0.06892420  0.92621373  0.34416465     0.11400
C235        C  0.04578231  0.58867082  0.35049501    -0.14700
C236        C  0.00608253  0.57822372  0.32177242     0.07400
C237        C  0.46794992  0.60552962  0.32360240    -0.14700
C238        C  0.46858184  0.64176458  0.35633559    -0.14700
C239        C  0.00775176  0.65147792  0.38677311     0.07400
C240        C  0.04684725  0.62535158  0.38228989    -0.14700
H241        H  0.07536946  0.56762104  0.34955250     0.11400
H242        H  0.43695966  0.59754998  0.30183151     0.11400
H243        H  0.43809288  0.66152812  0.35887239     0.11400
H244        H  0.07742137  0.63200369  0.40537554     0.11400
C245        C  0.04166557  0.86689908  0.62184293    -0.14700
C246        C  0.00206958  0.84212311  0.61081709     0.07400
C247        C  0.46023798  0.85349813  0.63416763    -0.14700
C248        C  0.45776503  0.88930159  0.66722342    -0.14700
C249        C  0.99727934  0.91469582  0.67799467     0.07400
C250        C  0.03916554  0.90294105  0.65452998    -0.14700
H251        H  0.07434317  0.85927003  0.60394137     0.11400
H252        H  0.42899677  0.83524809  0.62597784     0.11400
H253        H  0.42426941  0.89741414  0.68209429     0.11400
H254        H  0.07002944  0.92223388  0.66090126     0.11400
C255        C  0.47303497  0.64219736  0.64506168    -0.14700
C256        C  0.50976539  0.64924042  0.61021541     0.07400
C257        C  0.04683660  0.62039388  0.61047322    -0.14700
C258        C  0.04587783  0.58381475  0.64271789    -0.14700
C259        C  0.50850030  0.57615954  0.67627984     0.07400
C260        C  0.47272479  0.60617263  0.67838518    -0.14700
H261        H  0.44417077  0.66409754  0.64578125     0.11400
H262        H  0.07547987  0.62497148  0.58390839     0.11400
H263        H  0.07365410  0.56076653  0.64043096     0.11400
H264        H  0.44341185  0.60046170  0.70369595     0.11400
O265        O  0.54464780  0.20251438  0.44328938    -0.74300
O266        O  0.54223601  0.29341274  0.55506871    -0.75300
O267        O  0.54576373  0.20107404  0.55382072    -0.63900
O268        O  0.54127910  0.29464427  0.44478589    -0.72400
O269        O  0.96495436  0.29130140  0.44491055    -0.71900
O270        O  0.96938907  0.19832046  0.55492026    -0.63200
O271        O  0.96591274  0.28996233  0.55540946    -0.75700
O272        O  0.96827344  0.19959849  0.44348280    -0.74400
Cu273      Cu  0.54614549  0.24799730  0.49921393     1.04600
Cu274      Cu  0.96449216  0.24462155  0.49970745     1.04300
C275        C  0.00684608  0.18650859  0.42592194     0.91900
C276        C  0.50355947  0.30654801  0.57234345     0.91000
C277        C  0.50825082  0.18480240  0.57150792     0.83100
C278        C  0.00247939  0.30817358  0.42807165     0.89400
C279        C  0.99666869  0.45784574  0.28882752     0.85100
C280        C  0.95427981  0.46556376  0.25402626    -0.55100
C281        C  0.95556026  0.00362027  0.22638184     0.08000
C282        C  0.00006433  0.03035249  0.23584348     0.19000
C283        C  0.53702724  0.46100619  0.25048825    -0.55900
C284        C  0.53995857  0.99922713  0.22330037     0.08100
C285        C  0.00093698  0.99841247  0.32285265    -0.55400
C286        C  0.50251222  0.03611907  0.29534275     0.08700
H287        H  0.92676798  0.44210967  0.24893564     0.13200
H288        H  0.00145405  0.06178117  0.21495888    -0.01100
H289        H  0.56100705  0.43465970  0.24560812     0.13500
H290        H  0.00236674  0.99743133  0.36530974     0.13300
C291        C  0.49582744  0.45599205  0.71050628     0.85100
C292        C  0.53402443  0.45853923  0.75184554    -0.55100
C293        C  0.53549041  0.99649448  0.77931764     0.08000
C294        C  0.49777162  0.02867076  0.76291488     0.19000
C295        C  0.95165057  0.46475814  0.74180209    -0.55900
C296        C  0.95233703  0.00276157  0.76936114     0.08100
C297        C  0.50300806  0.99625966  0.67647699    -0.55400
C298        C  0.00391476  0.03418320  0.70350359     0.08700
H299        H  0.55837406  0.43259137  0.75809049     0.13200
H300        H  0.49887799  0.05982435  0.78438913    -0.01100
H301        H  0.92373134  0.44159306  0.74579520     0.13500
H302        H  0.50642543  0.99491794  0.63419902     0.13300
O303        O  0.79708291  0.06224314  0.94243412    -0.74300
O304        O  0.69913317  0.06098498  0.05416525    -0.75300
O305        O  0.79810899  0.06463884  0.05376025    -0.63900
O306        O  0.69804721  0.05812560  0.94312471    -0.72400
O307        O  0.69959804  0.48655390  0.94926654    -0.71900
O308        O  0.80054853  0.49275830  0.05414696    -0.63200
O309        O  0.70444932  0.48940241  0.05874451    -0.75700
O310        O  0.79657920  0.49031586  0.94317757    -0.74400
Cu311      Cu  0.74811779  0.06418850  0.99820856     1.04600
Cu312      Cu  0.75051674  0.48741454  0.00128761     1.04300
C313        C  0.81169634  0.02622491  0.92488014     0.91900
C314        C  0.68667008  0.02474669  0.07413043     0.91000
C315        C  0.81453792  0.02926915  0.07154687     0.83100
C316        C  0.68218961  0.02084734  0.93002804     0.89400
C317        C  0.58531159  0.97007177  0.85206643    -0.14700
C318        C  0.57038022  0.00457317  0.82077008     0.07400
C319        C  0.59078515  0.04564799  0.82756183    -0.14700
C320        C  0.62688026  0.05154357  0.86357590    -0.14700
C321        C  0.64301433  0.01638477  0.89318244     0.07400
C322        C  0.62121509  0.97583858  0.88756698    -0.14700
H323        H  0.56944857  0.43830162  0.84883177     0.11400
H324        H  0.58000489  0.07277575  0.80381054     0.11400
H325        H  0.64278795  0.08324409  0.86738885     0.11400
H326        H  0.63205947  0.94823501  0.91048729     0.11400
C327        C  0.86960881  0.99850161  0.79818094    -0.14700
C328        C  0.91474822  0.01428826  0.80635949     0.07400
C329        C  0.92424332  0.03789617  0.85226352    -0.14700
C330        C  0.88994259  0.04380445  0.88999320    -0.14700
C331        C  0.84600680  0.02548305  0.88282075     0.07400
C332        C  0.83589242  0.00337124  0.83643770    -0.14700
H333        H  0.86043954  0.98137791  0.76271675     0.11400
H334        H  0.95858714  0.05004305  0.86040569     0.11400
H335        H  0.89833890  0.06071991  0.92590001     0.11400
H336        H  0.80195083  0.98939757  0.83011976     0.11400
C337        C  0.61057613  0.04664686  0.11081735    -0.14700
C338        C  0.65122732  0.02276510  0.11500580     0.07400
C339        C  0.65645314  0.99375241  0.15658781    -0.14700
C340        C  0.62116958  0.98764288  0.19269469    -0.14700
C341        C  0.57896100  0.00929240  0.18711029     0.07400
C342        C  0.57453511  0.03970174  0.14635039    -0.14700
H343        H  0.60586566  0.06908047  0.07869366     0.11400
H344        H  0.68788177  0.97547250  0.16091500     0.11400
H345        H  0.62722641  0.46553588  0.22472461     0.11400
H346        H  0.54293213  0.05716882  0.14058337     0.11400
C347        C  0.89249352  0.04820684  0.10728324    -0.14700
C348        C  0.84875837  0.02938861  0.11384303     0.05400
C349        C  0.83900942  0.00601495  0.15946474    -0.14700
C350        C  0.87292618  0.50001261  0.19729719    -0.14700
C351        C  0.91798664  0.01600427  0.18953285     0.07400
C352        C  0.92702109  0.04133684  0.14478460    -0.14700
H353        H  0.90061690  0.06609416  0.07196121     0.11400
H354        H  0.80522543  0.49155357  0.16527577     0.11400
H355        H  0.86391683  0.48184509  0.23207347     0.11400
H356        H  0.96111936  0.05414193  0.13731795     0.11400
C357        C  0.54031634  0.37022689  0.38161488    -0.14700
C358        C  0.00104552  0.34435405  0.39015016     0.07400
C359        C  0.95995765  0.35479679  0.36423391    -0.14700
C360        C  0.95806888  0.39049932  0.33060906    -0.14700
C361        C  0.99738423  0.41677447  0.32210205     0.07400
C362        C  0.53833090  0.40618333  0.34861148    -0.14700
H363        H  0.57236848  0.36341268  0.40158337     0.11400
H364        H  0.92897136  0.33567434  0.37049166     0.11400
H365        H  0.92518076  0.39777919  0.31326952     0.11400
H366        H  0.56892110  0.42621258  0.34415836     0.11400
C367        C  0.54578770  0.08868018  0.35047799    -0.14700
C368        C  0.50608268  0.07822316  0.32177016     0.07400
C369        C  0.96794220  0.10551904  0.32361399    -0.14700
C370        C  0.96857333  0.14175457  0.35634608    -0.14700
C371        C  0.50774927  0.15147774  0.38676958     0.07400
C372        C  0.54685096  0.12536119  0.38227225    -0.14700
H373        H  0.57538066  0.06763793  0.34952465     0.11400
H374        H  0.93694818  0.09753137  0.30185438     0.11400
H375        H  0.93807901  0.16150995  0.35889429     0.11400
H376        H  0.57742997  0.13202084  0.40534693     0.11400
C377        C  0.54166677  0.36689646  0.62184433    -0.14700
C378        C  0.50207073  0.34212175  0.61081494     0.07400
C379        C  0.96023774  0.35349877  0.63416069    -0.14700
C380        C  0.95776327  0.38930273  0.66721525    -0.14700
C381        C  0.49727756  0.41469528  0.67799085     0.07400
C382        C  0.53916528  0.40293910  0.65453042    -0.14700
H383        H  0.57434551  0.35926628  0.60394617     0.11400
H384        H  0.92899627  0.33524984  0.62596823     0.11400
H385        H  0.92426691  0.39741698  0.68208134     0.11400
H386        H  0.57002907  0.42223062  0.66090497     0.11400
C387        C  0.97304157  0.14219748  0.64506359    -0.14700
C388        C  0.00976818  0.14923755  0.61021086     0.07400
C389        C  0.54683704  0.12038875  0.61046347    -0.14700
C390        C  0.54588005  0.08381077  0.64270994    -0.14700
C391        C  0.00850677  0.07615896  0.67627916     0.07400
C392        C  0.97273353  0.10617390  0.67838894    -0.14700
H393        H  0.94417955  0.16409945  0.64578708     0.11400
H394        H  0.57547692  0.12496360  0.58389365     0.11400
H395        H  0.57365429  0.06076062  0.64041895     0.11400
H396        H  0.94342309  0.10046533  0.70370567     0.11400
O397        O  0.54464926  0.70251406  0.44329419    -0.74300
O398        O  0.54223431  0.79341437  0.55507073    -0.75300
O399        O  0.54576274  0.70107638  0.55382568    -0.63900
O400        O  0.54127930  0.79464436  0.44478808    -0.72400
O401        O  0.96495453  0.79130216  0.44491183    -0.71900
O402        O  0.96938797  0.69832221  0.55492240    -0.63200
O403        O  0.96591093  0.78996393  0.55541138    -0.75700
O404        O  0.96827489  0.69959922  0.44348463    -0.74400
Cu405      Cu  0.54614525  0.74799825  0.49921759     1.04600
Cu406      Cu  0.96449182  0.74462265  0.49970903     1.04300
C407        C  0.00684797  0.68650868  0.42592543     0.91900
C408        C  0.50355762  0.80654949  0.57234543     0.91000
C409        C  0.50824944  0.68480461  0.57151165     0.83100
C410        C  0.00247996  0.80817380  0.42807334     0.89400
C411        C  0.99667476  0.95784478  0.28882685     0.85100
C412        C  0.95428750  0.96556226  0.25402303    -0.55100
C413        C  0.95555159  0.50362173  0.22638472     0.08000
C414        C  0.00005640  0.53035382  0.23584451     0.19000
C415        C  0.53703545  0.96100536  0.25049007    -0.55900
C416        C  0.53994972  0.49922816  0.22329890     0.08100
C417        C  0.00093307  0.49841310  0.32285337    -0.55400
C418        C  0.50250749  0.53611996  0.29534407     0.08700
H419        H  0.92677487  0.94210871  0.24893209     0.13200
H420        H  0.00144591  0.56178254  0.21496029    -0.01100
H421        H  0.56101602  0.93465863  0.24561166     0.13500
H422        H  0.00236570  0.49743168  0.36531074     0.13300
C423        C  0.49583102  0.95599270  0.71051009     0.85100
C424        C  0.53402893  0.95853880  0.75184853    -0.55100
C425        C  0.53548321  0.49649451  0.77931551     0.08000
C426        C  0.49776324  0.52866941  0.76291283     0.19000
C427        C  0.95165519  0.96476134  0.74180619    -0.55900
C428        C  0.95232973  0.50275802  0.76935771     0.08100
C429        C  0.50300307  0.49625995  0.67647420    -0.55400
C430        C  0.00390719  0.53418292  0.70350204     0.08700
H431        H  0.55837758  0.93259030  0.75809272     0.13200
H432        H  0.49886820  0.55982269  0.78438762    -0.01100
H433        H  0.92373450  0.94159832  0.74579953     0.13500
H434        H  0.50642169  0.49491945  0.63419614     0.13300
O435        O  0.79707472  0.56223844  0.94243042    -0.74300
O436        O  0.69912589  0.56098387  0.05416352    -0.75300
O437        O  0.79810223  0.56463507  0.05375702    -0.63900
O438        O  0.69803870  0.55812430  0.94312326    -0.72400
O439        O  0.69960946  0.98655526  0.94926721    -0.71900
O440        O  0.80055734  0.99276229  0.05414987    -0.63200
O441        O  0.70445853  0.98940356  0.05874559    -0.75700
O442        O  0.79659049  0.99032052  0.94318121    -0.74400
Cu443      Cu  0.74811017  0.56418573  0.99820603     1.04600
Cu444      Cu  0.75052699  0.98741734  0.00128966     1.04300
C445        C  0.81168619  0.52621967  0.92487586     0.91900
C446        C  0.68666176  0.52474602  0.07412901     0.91000
C447        C  0.81453029  0.52926496  0.07154382     0.83100
C448        C  0.68217937  0.52084649  0.93002746     0.89400
C449        C  0.58529877  0.47007322  0.85206905    -0.14700
C450        C  0.57037105  0.50457374  0.82076947     0.07400
C451        C  0.59077794  0.54564786  0.82755909    -0.14700
C452        C  0.62687237  0.55154317  0.86357388    -0.14700
C453        C  0.64300350  0.51638485  0.89318309     0.07400
C454        C  0.62120139  0.47583975  0.88757055    -0.14700
H455        H  0.56946343  0.93829947  0.84882841     0.11400
H456        H  0.58000053  0.57277435  0.80380481     0.11400
H457        H  0.64278218  0.58324314  0.86738472     0.11400
H458        H  0.63204384  0.44823641  0.91049328     0.11400
C459        C  0.86960196  0.49849119  0.79817977    -0.14700
C460        C  0.91474001  0.51428257  0.80635638     0.07400
C461        C  0.92423262  0.53789424  0.85225800    -0.14700
C462        C  0.88993117  0.54380234  0.88998696    -0.14700
C463        C  0.84599696  0.52547663  0.88281651     0.07400
C464        C  0.83588506  0.50336040  0.83643617    -0.14700
H465        H  0.86043416  0.48136496  0.76271757     0.11400
H466        H  0.95857511  0.55004526  0.86039923     0.11400
H467        H  0.89832575  0.56072111  0.92589136     0.11400
H468        H  0.80194465  0.48938324  0.83011936     0.11400
C469        C  0.61056702  0.54664570  0.11081429    -0.14700
C470        C  0.65121907  0.52276518  0.11500454     0.07400
C471        C  0.65644543  0.49375443  0.15658813    -0.14700
C472        C  0.62116158  0.48764513  0.19269482    -0.14700
C473        C  0.57895219  0.50929333  0.18710860     0.07400
C474        C  0.57452569  0.53970084  0.14634722    -0.14700
H475        H  0.60585627  0.56907757  0.07868950     0.11400
H476        H  0.68787478  0.47547492  0.16091643     0.11400
H477        H  0.62723441  0.96553205  0.22472353     0.11400
H478        H  0.54292206  0.55716676  0.14057928     0.11400
C479        C  0.89248399  0.54820668  0.10728458    -0.14700
C480        C  0.84875059  0.52938392  0.11384080     0.05400
C481        C  0.83900257  0.50600758  0.15946098    -0.14700
C482        C  0.87293404  0.00001754  0.19729913    -0.14700
C483        C  0.91797761  0.51600384  0.18953448     0.07400
C484        C  0.92701091  0.54133881  0.14478758    -0.14700
H485        H  0.90060650  0.56609692  0.07196438     0.11400
H486        H  0.80523099  0.99156397  0.16528195     0.11400
H487        H  0.86392504  0.98185205  0.23207615     0.11400
H488        H  0.96110810  0.55414781  0.13732328     0.11400
C489        C  0.54031778  0.87022777  0.38161940    -0.14700
C490        C  0.00104719  0.84435398  0.39015167     0.07400
C491        C  0.95996073  0.85479546  0.36423160    -0.14700
C492        C  0.95807330  0.89049768  0.33060591    -0.14700
C493        C  0.99738854  0.91677379  0.32210204     0.07400
C494        C  0.53833388  0.90618392  0.34861528    -0.14700
H495        H  0.57236780  0.86341458  0.40159096     0.11400
H496        H  0.92897471  0.83567207  0.37048705     0.11400
H497        H  0.92518571  0.89777679  0.31326362     0.11400
H498        H  0.56892477  0.92621372  0.34416459     0.11400
C499        C  0.54578247  0.58867081  0.35049514    -0.14700
C500        C  0.50608255  0.57822375  0.32177248     0.07400
C501        C  0.96794992  0.60552958  0.32360235    -0.14700
C502        C  0.96858195  0.64176452  0.35633557    -0.14700
C503        C  0.50775186  0.65147794  0.38677318     0.07400
C504        C  0.54684733  0.62535152  0.38229002    -0.14700
H505        H  0.57536948  0.56762098  0.34955251     0.11400
H506        H  0.93695971  0.59754994  0.30183154     0.11400
H507        H  0.93809291  0.66152806  0.35887258     0.11400
H508        H  0.57742198  0.63200376  0.40537576     0.11400
C509        C  0.54166543  0.86689906  0.62184299    -0.14700
C510        C  0.50206950  0.84212310  0.61081707     0.07400
C511        C  0.96023794  0.85349812  0.63416764    -0.14700
C512        C  0.95776494  0.88930157  0.66722347    -0.14700
C513        C  0.49727937  0.91469583  0.67799469     0.07400
C514        C  0.53916547  0.90294103  0.65453001    -0.14700
H515        H  0.57434303  0.85926998  0.60394147     0.11400
H516        H  0.92899673  0.83524808  0.62597790     0.11400
H517        H  0.92426931  0.89741410  0.68209436     0.11400
H518        H  0.57002937  0.92223389  0.66090136     0.11400
C519        C  0.97303476  0.64219732  0.64506181    -0.14700
C520        C  0.00976536  0.64924040  0.61021547     0.07400
C521        C  0.54683665  0.62039389  0.61047327    -0.14700
C522        C  0.54587787  0.58381470  0.64271787    -0.14700
C523        C  0.00850007  0.57615955  0.67627991     0.07400
C524        C  0.97272462  0.60617263  0.67838532    -0.14700
H525        H  0.94417074  0.66409754  0.64578136     0.11400
H526        H  0.57547991  0.62497153  0.58390857     0.11400
H527        H  0.57365416  0.56076641  0.64043101     0.11400
H528        H  0.94341115  0.60046150  0.70369617     0.11400
loop_ 
_geom_bond_atom_site_label_1 
_geom_bond_atom_site_label_2 
_geom_bond_distance 
_geom_bond_site_symmetry_2 
_ccdc_geom_bond_type 
O1           Cu9   2.007       .  S
O1          C275   1.278       .  A
O2           Cu9   2.008       .  S
O2           C12   1.278       .  A
O3           Cu9   2.011       .  S
O3           C13   1.278       .  A
O4           Cu9   2.008       .  S
O4          C278   1.278       .  A
O5          Cu10   2.009       .  S
O5           C14   1.278       .  A
O6          Cu10   2.014       .  S
O6          C277   1.279       .  A
O7          Cu10   1.999       .  S
O7          C276   1.277       .  A
O8          Cu10   2.006       .  S
O8           C11   1.278       .  A
Cu9        Cu274   2.372   1_455  S
Cu10       Cu273   2.372       .  S
C11         O265   1.278       .  A
C11         C371   1.476       .  S
C12         O271   1.277   1_455  A
C12         C114   1.477       .  S
C13         O270   1.279   1_455  A
C13         C388   1.478       .  S
C14         O268   1.278       .  A
C14          C94   1.479       .  S
C15          C16   1.538       .  S
C15         C153   1.531       .  S
C15         C283   1.532       .  S
C15          C97   1.527       .  S
C16          H23   1.081       .  S
C16         C149   1.371       .  D
C17          C18   1.545       .  S
C17         C148   1.371   1_545  D
C17          C87   1.492       .  S
C18         C286   1.534       .  S
C18         C284   1.548   1_545  S
C18          H24   1.108       .  S
C19         C279   1.532   1_455  S
C19          H25   1.084       .  S
C19         C152   1.371       .  D
C20         C282   1.548   1_565  S
C20         C151   1.371       .  D
C20          C77   1.494   1_565  S
C21         C147   1.531       .  S
C21          H26   1.087       .  S
C21         C286   1.360   1_565  D
C22         C282   1.534       .  S
C22         C285   1.360   1_545  D
C22         C104   1.469       .  S
C27          C28   1.532   1_655  S
C27         C165   1.530   1_655  S
C27         C295   1.540       .  S
C27         C117   1.525       .  S
C28          H35   1.086       .  S
C28         C161   1.368       .  D
C29          C30   1.544   1_465  S
C29         C160   1.368       .  D
C29          C54   1.484   1_565  S
C30         C298   1.539   1_655  S
C30         C296   1.545       .  S
C30          H36   1.109       .  S
C31         C291   1.540       .  S
C31          H37   1.081       .  S
C31         C164   1.370       .  D
C32         C294   1.545       .  S
C32         C163   1.370   1_545  D
C32          C64   1.493       .  S
C33         C159   1.530   1_455  S
C33          H38   1.087       .  S
C33         C298   1.361   1_565  D
C34         C294   1.539       .  S
C34         C297   1.361   1_545  D
C34         C127   1.476       .  S
O39         Cu47   2.018       .  S
O39          C49   1.278       .  A
O40         Cu47   2.022   1_554  S
O40          C50   1.279       .  A
O41         Cu47   2.029   1_554  S
O41          C51   1.279       .  A
O42         Cu47   2.029       .  S
O42          C52   1.280       .  A
O43         Cu48   1.987   1_556  S
O43         C184   1.276       .  A
O44         Cu48   1.988       .  S
O44         C183   1.275       .  A
O45         Cu48   1.991       .  S
O45         C182   1.276       .  A
O46         Cu48   2.003   1_556  S
O46         C181   1.277       .  A
Cu47       Cu180   2.375   1_546  S
Cu48       Cu179   2.375   1_554  S
C49         O178   1.277   1_545  A
C49          C67   1.468       .  S
C50         O177   1.276   1_545  A
C50          C74   1.469       .  S
C51         O176   1.275   1_545  A
C51          C84   1.467       .  S
C52         O175   1.276   1_545  A
C52          C57   1.481       .  S
C53          C54   1.403   1_565  A
C53          C58   1.391       .  A
C53         H191   1.083       .  S
C54          C55   1.406       .  A
C55          C56   1.404       .  A
C55          H60   1.083       .  S
C56          C57   1.407       .  A
C56          H61   1.083       .  S
C57          C58   1.405   1_545  A
C58          H62   1.083       .  S
H59         C185   1.083       .  S
C63          C64   1.409   1_565  A
C63          C68   1.395   1_565  A
C63          H69   1.082       .  S
C64          C65   1.408       .  A
C65          C66   1.402       .  A
C65          H70   1.082       .  S
C66          C67   1.402       .  A
C66          H71   1.083       .  S
C67          C68   1.399       .  A
C68          H72   1.084   1_545  S
C73          C74   1.403       .  A
C73          C78   1.402       .  A
C73          H79   1.083       .  S
C74          C75   1.399   1_545  A
C75          C76   1.392       .  A
C75          H80   1.084       .  S
C76          C77   1.409   1_565  A
C76         H213   1.081       .  S
C77          C78   1.409       .  A
C78          H82   1.079       .  S
H81         C208   1.081       .  S
C83          C84   1.401       .  A
C83          C88   1.403       .  A
C83          H89   1.083       .  S
C84          C85   1.399       .  A
C85         C218   1.393       .  A
C85         H222   1.084   1_545  S
C86         C217   1.393       .  A
C86         C219   1.408       .  A
C86          H91   1.082       .  S
C87          C88   1.409       .  A
C87         C218   1.408       .  A
C88          H92   1.080       .  S
H90         C217   1.084       .  S
C93          C98   1.395       .  A
C93         C358   1.403       .  A
C93          H99   1.083       .  S
C94          C95   1.404       .  A
C94         C357   1.403       .  A
C95          C96   1.399       .  A
C95         H100   1.083       .  S
C96          C97   1.411       .  A
C96         H101   1.078       .  S
C97         C362   1.409       .  A
C98         C361   1.409   1_455  A
C98         H102   1.083       .  S
C103        C104   1.401       .  A
C103        C108   1.396       .  A
C103        H109   1.083       .  S
C104        C369   1.400   1_455  A
C105        C106   1.399       .  A
C105        C368   1.400       .  A
C105        H110   1.083       .  S
C106        C371   1.407       .  A
C106        H111   1.083       .  S
C107        C275   1.476       .  S
C107        C108   1.405       .  A
C107        C370   1.407   1_455  A
C108        H112   1.083       .  S
C113        C114   1.403       .  A
C113        C118   1.396       .  A
C113        H119   1.083       .  S
C114        C379   1.403   1_455  A
C115        C116   1.396       .  A
C115        C378   1.403       .  A
C115        H120   1.083       .  S
C116        C381   1.410       .  A
C116        H121   1.077       .  S
C117        C118   1.409   1_655  A
C117        C380   1.410       .  A
C118        H122   1.083       .  S
C123        C124   1.406       .  A
C123        C128   1.400       .  A
C123        H129   1.083       .  S
C124        C277   1.478       .  S
C124        C389   1.405       .  A
C125        C126   1.398       .  A
C125        C388   1.405       .  A
C125        H130   1.083       .  S
C126        C391   1.403       .  A
C126        H131   1.083       .  S
C127        C128   1.401       .  A
C127        C390   1.403       .  A
C128        H132   1.083       .  S
O133       Cu141   2.007       .  S
O133        C407   1.278       .  A
O134       Cu141   2.008       .  S
O134        C144   1.278       .  A
O135       Cu141   2.011       .  S
O135        C145   1.278       .  A
O136       Cu141   2.008       .  S
O136        C410   1.278       .  A
O137       Cu142   2.009       .  S
O137        C146   1.278       .  A
O138       Cu142   2.014       .  S
O138        C409   1.279       .  A
O139       Cu142   2.000       .  S
O139        C408   1.277       .  A
O140       Cu142   2.006       .  S
O140        C143   1.278       .  A
Cu141      Cu406   2.372   1_455  S
Cu142      Cu405   2.372       .  S
C143        O397   1.278       .  A
C143        C503   1.476       .  S
C144        O403   1.277   1_455  A
C144        C246   1.477       .  S
C145        O402   1.279   1_455  A
C145        C520   1.478       .  S
C146        O400   1.278       .  A
C146        C226   1.479       .  S
C147        C148   1.538       .  S
C147        C415   1.532       .  S
C147        C229   1.527       .  S
C148        H155   1.081       .  S
C149        C150   1.545       .  S
C149        C219   1.492       .  S
C150        C418   1.534       .  S
C150        C416   1.548       .  S
C150        H156   1.108       .  S
C151        C411   1.532   1_455  S
C151        H157   1.084       .  S
C152        C414   1.548       .  S
C152        C209   1.494       .  S
C153        H158   1.087       .  S
C153        C418   1.360       .  D
C154        C414   1.534       .  S
C154        C417   1.360       .  D
C154        C236   1.469       .  S
C159        C160   1.532   1_655  S
C159        C427   1.540       .  S
C159        C249   1.525       .  S
C160        H167   1.086       .  S
C161        C162   1.544   1_455  S
C161        C186   1.484       .  S
C162        C430   1.539   1_655  S
C162        C428   1.545       .  S
C162        H168   1.109       .  S
C163        C423   1.540       .  S
C163        H169   1.081       .  S
C164        C426   1.545       .  S
C164        C196   1.493       .  S
C165        H170   1.087       .  S
C165        C430   1.361       .  D
C166        C426   1.539       .  S
C166        C429   1.361       .  D
C166        C259   1.476       .  S
O171       Cu179   2.018       .  S
O171        C181   1.278       .  A
O172       Cu179   2.022   1_554  S
O172        C182   1.279       .  A
O173       Cu179   2.029   1_554  S
O173        C183   1.279       .  A
O174       Cu179   2.029       .  S
O174        C184   1.280       .  A
O175       Cu180   1.987   1_556  S
O176       Cu180   1.988       .  S
O177       Cu180   1.991       .  S
O178       Cu180   2.003   1_556  S
C181        C199   1.468       .  S
C182        C206   1.469       .  S
C183        C216   1.467       .  S
C184        C189   1.481       .  S
C185        C186   1.403       .  A
C185        C190   1.391       .  A
C186        C187   1.406       .  A
C187        C188   1.404       .  A
C187        H192   1.083       .  S
C188        C189   1.407       .  A
C188        H193   1.083       .  S
C189        C190   1.405       .  A
C190        H194   1.083       .  S
C195        C196   1.409       .  A
C195        C200   1.395       .  A
C195        H201   1.082       .  S
C196        C197   1.408       .  A
C197        C198   1.402       .  A
C197        H202   1.082       .  S
C198        C199   1.402       .  A
C198        H203   1.083       .  S
C199        C200   1.399       .  A
C200        H204   1.084       .  S
C205        C206   1.403       .  A
C205        C210   1.402       .  A
C205        H211   1.083       .  S
C206        C207   1.399       .  A
C207        C208   1.392       .  A
C207        H212   1.084       .  S
C208        C209   1.409       .  A
C209        C210   1.409       .  A
C210        H214   1.079       .  S
C215        C216   1.401       .  A
C215        C220   1.403       .  A
C215        H221   1.083       .  S
C216        C217   1.399       .  A
C218        H223   1.082   1_545  S
C219        C220   1.409       .  A
C220        H224   1.080       .  S
C225        C490   1.403       .  A
C225        C230   1.395       .  A
C225        H231   1.083       .  S
C226        C489   1.403       .  A
C226        C227   1.404       .  A
C227        C228   1.399       .  A
C227        H232   1.083       .  S
C228        C229   1.411       .  A
C228        H233   1.078       .  S
C229        C494   1.409       .  A
C230        C493   1.409   1_455  A
C230        H234   1.083       .  S
C235        C236   1.401       .  A
C235        C240   1.396       .  A
C235        H241   1.083       .  S
C236        C501   1.400   1_455  A
C237        C500   1.400       .  A
C237        C238   1.399       .  A
C237        H242   1.083       .  S
C238        C503   1.407       .  A
C238        H243   1.083       .  S
C239        C407   1.476       .  S
C239        C502   1.407   1_455  A
C239        C240   1.405       .  A
C240        H244   1.083       .  S
C245        C246   1.403       .  A
C245        C250   1.396       .  A
C245        H251   1.083       .  S
C246        C511   1.403   1_455  A
C247        C510   1.403       .  A
C247        C248   1.396       .  A
C247        H252   1.083       .  S
C248        C513   1.410       .  A
C248        H253   1.077       .  S
C249        C512   1.410       .  A
C249        C250   1.409   1_655  A
C250        H254   1.083       .  S
C255        C256   1.406       .  A
C255        C260   1.400       .  A
C255        H261   1.083       .  S
C256        C409   1.478       .  S
C256        C521   1.405       .  A
C257        C520   1.405       .  A
C257        C258   1.398       .  A
C257        H262   1.083       .  S
C258        C523   1.403       .  A
C258        H263   1.083       .  S
C259        C522   1.403       .  A
C259        C260   1.401       .  A
C260        H264   1.083       .  S
O265       Cu273   2.007       .  S
O266       Cu273   2.008       .  S
O266        C276   1.278       .  A
O267       Cu273   2.011       .  S
O267        C277   1.278       .  A
O268       Cu273   2.008       .  S
O269       Cu274   2.009       .  S
O269        C278   1.278   1_655  A
O270       Cu274   2.014       .  S
O271       Cu274   1.999       .  S
O272       Cu274   2.006       .  S
O272        C275   1.278   1_655  A
C276        C378   1.477       .  S
C278        C358   1.479       .  S
C279        C280   1.538       .  S
C279        C417   1.531   1_655  S
C279        C361   1.527       .  S
C280        H287   1.081       .  S
C280        C413   1.371       .  D
C281        C282   1.545   1_655  S
C281        C412   1.371   1_545  D
C281        C351   1.492       .  S
C282        H288   1.108       .  S
C283        H289   1.084       .  S
C283        C416   1.371       .  D
C284        C415   1.371       .  D
C284        C341   1.494   1_565  S
C285        C411   1.531   1_455  S
C285        H290   1.087       .  S
C286        C368   1.469       .  S
C291        C292   1.532       .  S
C291        C429   1.530       .  S
C291        C381   1.525       .  S
C292        H299   1.086       .  S
C292        C425   1.368       .  D
C293        C294   1.544   1_565  S
C293        C424   1.368       .  D
C293        C318   1.484   1_565  S
C294        H300   1.109       .  S
C295        H301   1.081       .  S
C295        C428   1.370       .  D
C296        C427   1.370   1_545  D
C296        C328   1.493       .  S
C297        C423   1.530       .  S
C297        H302   1.087       .  S
C298        C391   1.476       .  S
O303       Cu311   2.018       .  S
O303        C313   1.278       .  A
O304       Cu311   2.022   1_554  S
O304        C314   1.279       .  A
O305       Cu311   2.029   1_554  S
O305        C315   1.279       .  A
O306       Cu311   2.029       .  S
O306        C316   1.280       .  A
O307       Cu312   1.987   1_556  S
O307        C448   1.276       .  A
O308       Cu312   1.988       .  S
O308        C447   1.275       .  A
O309       Cu312   1.991       .  S
O309        C446   1.276       .  A
O310       Cu312   2.003   1_556  S
O310        C445   1.277       .  A
Cu311      Cu444   2.375   1_546  S
Cu312      Cu443   2.375   1_554  S
C313        O442   1.277   1_545  A
C313        C331   1.468       .  S
C314        O441   1.276   1_545  A
C314        C338   1.469       .  S
C315        O440   1.275   1_545  A
C315        C348   1.467       .  S
C316        O439   1.276   1_545  A
C316        C321   1.481       .  S
C317        C318   1.403   1_565  A
C317        C322   1.391       .  A
C317        H455   1.083       .  S
C318        C319   1.406       .  A
C319        C320   1.404       .  A
C319        H324   1.083       .  S
C320        C321   1.407       .  A
C320        H325   1.083       .  S
C321        C322   1.405   1_545  A
C322        H326   1.083       .  S
H323        C449   1.083       .  S
C327        C328   1.409   1_565  A
C327        C332   1.395   1_565  A
C327        H333   1.082       .  S
C328        C329   1.408       .  A
C329        C330   1.402       .  A
C329        H334   1.082       .  S
C330        C331   1.402       .  A
C330        H335   1.083       .  S
C331        C332   1.399       .  A
C332        H336   1.084   1_545  S
C337        C338   1.403       .  A
C337        C342   1.402       .  A
C337        H343   1.083       .  S
C338        C339   1.399   1_545  A
C339        C340   1.392       .  A
C339        H344   1.084       .  S
C340        C341   1.409   1_565  A
C340        H477   1.081       .  S
C341        C342   1.409       .  A
C342        H346   1.079       .  S
H345        C472   1.081       .  S
C347        C348   1.401       .  A
C347        C352   1.403       .  A
C347        H353   1.083       .  S
C348        C349   1.399       .  A
C349        C482   1.393       .  A
C349        H486   1.084   1_545  S
C350        C481   1.393       .  A
C350        C483   1.408       .  A
C350        H355   1.082       .  S
C351        C482   1.408       .  A
C351        C352   1.409       .  A
C352        H356   1.080       .  S
H354        C481   1.084       .  S
C357        C362   1.395       .  A
C357        H363   1.083       .  S
C358        C359   1.404   1_455  A
C359        C360   1.399       .  A
C359        H364   1.083       .  S
C360        C361   1.411       .  A
C360        H365   1.078       .  S
C362        H366   1.083       .  S
C367        C368   1.401       .  A
C367        C372   1.396       .  A
C367        H373   1.083       .  S
C369        C370   1.399       .  A
C369        H374   1.083       .  S
C370        H375   1.083       .  S
C371        C372   1.405       .  A
C372        H376   1.083       .  S
C377        C378   1.403       .  A
C377        C382   1.396       .  A
C377        H383   1.083       .  S
C379        C380   1.396       .  A
C379        H384   1.083       .  S
C380        H385   1.077       .  S
C381        C382   1.409       .  A
C382        H386   1.083       .  S
C387        C388   1.406   1_655  A
C387        C392   1.400       .  A
C387        H393   1.083       .  S
C389        C390   1.398       .  A
C389        H394   1.083       .  S
C390        H395   1.083       .  S
C391        C392   1.401   1_455  A
C392        H396   1.083       .  S
O397       Cu405   2.007       .  S
O398       Cu405   2.008       .  S
O398        C408   1.278       .  A
O399       Cu405   2.011       .  S
O399        C409   1.278       .  A
O400       Cu405   2.008       .  S
O401       Cu406   2.009       .  S
O401        C410   1.278   1_655  A
O402       Cu406   2.014       .  S
O403       Cu406   2.000       .  S
O404       Cu406   2.006       .  S
O404        C407   1.278   1_655  A
C408        C510   1.477       .  S
C410        C490   1.479       .  S
C411        C412   1.538       .  S
C411        C493   1.527       .  S
C412        H419   1.081       .  S
C413        C414   1.545   1_655  S
C413        C483   1.492       .  S
C414        H420   1.108       .  S
C415        H421   1.084       .  S
C416        C473   1.494       .  S
C417        H422   1.087       .  S
C418        C500   1.469       .  S
C423        C424   1.532       .  S
C423        C513   1.525       .  S
C424        H431   1.086       .  S
C425        C426   1.544       .  S
C425        C450   1.484       .  S
C426        H432   1.109       .  S
C427        H433   1.081       .  S
C428        C460   1.493       .  S
C429        H434   1.087       .  S
C430        C523   1.476       .  S
O435       Cu443   2.018       .  S
O435        C445   1.278       .  A
O436       Cu443   2.022   1_554  S
O436        C446   1.279       .  A
O437       Cu443   2.029   1_554  S
O437        C447   1.279       .  A
O438       Cu443   2.029       .  S
O438        C448   1.280       .  A
O439       Cu444   1.987   1_556  S
O440       Cu444   1.988       .  S
O441       Cu444   1.991       .  S
O442       Cu444   2.003   1_556  S
C445        C463   1.468       .  S
C446        C470   1.469       .  S
C447        C480   1.467       .  S
C448        C453   1.481       .  S
C449        C450   1.403       .  A
C449        C454   1.391       .  A
C450        C451   1.406       .  A
C451        C452   1.404       .  A
C451        H456   1.083       .  S
C452        C453   1.407       .  A
C452        H457   1.083       .  S
C453        C454   1.405       .  A
C454        H458   1.083       .  S
C459        C460   1.409       .  A
C459        C464   1.395       .  A
C459        H465   1.082       .  S
C460        C461   1.408       .  A
C461        C462   1.402       .  A
C461        H466   1.082       .  S
C462        C463   1.402       .  A
C462        H467   1.083       .  S
C463        C464   1.399       .  A
C464        H468   1.084       .  S
C469        C470   1.403       .  A
C469        C474   1.402       .  A
C469        H475   1.083       .  S
C470        C471   1.399       .  A
C471        C472   1.392       .  A
C471        H476   1.084       .  S
C472        C473   1.409       .  A
C473        C474   1.409       .  A
C474        H478   1.079       .  S
C479        C480   1.401       .  A
C479        C484   1.403       .  A
C479        H485   1.083       .  S
C480        C481   1.399       .  A
C482        H487   1.082   1_545  S
C483        C484   1.409       .  A
C484        H488   1.080       .  S
C489        C494   1.395       .  A
C489        H495   1.083       .  S
C490        C491   1.404   1_455  A
C491        C492   1.399       .  A
C491        H496   1.083       .  S
C492        C493   1.411       .  A
C492        H497   1.078       .  S
C494        H498   1.083       .  S
C499        C500   1.401       .  A
C499        C504   1.396       .  A
C499        H505   1.083       .  S
C501        C502   1.399       .  A
C501        H506   1.083       .  S
C502        H507   1.083       .  S
C503        C504   1.405       .  A
C504        H508   1.083       .  S
C509        C510   1.403       .  A
C509        C514   1.396       .  A
C509        H515   1.083       .  S
C511        C512   1.396       .  A
C511        H516   1.083       .  S
C512        H517   1.077       .  S
C513        C514   1.409       .  A
C514        H518   1.083       .  S
C519        C520   1.406   1_655  A
C519        C524   1.400       .  A
C519        H525   1.083       .  S
C521        C522   1.398       .  A
C521        H526   1.083       .  S
C522        H527   1.083       .  S
C523        C524   1.401   1_455  A
C524        H528   1.083       .  S
