geometry optimzed in LAMMPS
_audit_creation_date              2020-11-30 
_audit_creation_method            'lammps2cif' 
_symmetry_space_group_name_H-M    'P1' 
_symmetry_Int_Tables_number       1 
_symmetry_cell_setting            triclinic 
loop_ 
_symmetry_equiv_pos_as_xyz 
  x,y,z 
_cell_length_a                    39.34444538 
_cell_length_b                    38.53839268678497 
_cell_length_c                    29.02406795012008 
_cell_angle_alpha                 89.55027104721079 
_cell_angle_beta                  89.68578094485656 
_cell_angle_gamma                 90.2874341259975 
loop_ 
_atom_site_label 
_atom_site_type_symbol 
_atom_site_fract_x 
_atom_site_fract_y 
_atom_site_fract_z 
_atom_site_charge 
O1          O  0.26080090  0.18751438  0.36659272    -0.80200
O2          O  0.25961434  0.18582876  0.63183564    -0.81800
O3          O  0.31503402  0.14735473  0.50605426    -0.78800
O4          O  0.20547948  0.15180778  0.49290475    -0.77200
O5          O  0.16530359  0.19418107  0.49697233    -0.79000
O6          O  0.35644938  0.18894383  0.50907569    -0.79900
O7          O  0.25639208  0.14748497  0.57180013    -0.81300
O8          O  0.26273045  0.14887859  0.42655044    -0.81500
Eu9        Eu  0.26135672  0.17873385  0.49962114     2.39200
O10         O  0.22844171  0.21285119  0.54951805    -0.89100
O11         O  0.29592780  0.21242342  0.45066510    -0.92700
C12         C  0.26148927  0.15589431  0.38327122     1.02000
C13         C  0.25670183  0.15468220  0.61491372     1.01900
C14         C  0.34607818  0.15723850  0.51108758     1.01800
C15         C  0.17459839  0.16255669  0.49180237     0.99700
H16         H  0.30884472  0.19678843  0.56800537     0.29400
O17         O  0.29520971  0.21189586  0.54891463    -1.01400
H18         H  0.21376637  0.20006454  0.43285581     0.29400
O19         O  0.22846189  0.21411928  0.45152251    -1.04000
O20         O  0.26298967  0.30712538  0.63302671    -0.81200
O21         O  0.26074778  0.30924545  0.36673071    -0.80700
O22         O  0.35865628  0.24550773  0.57357535    -0.79200
O23         O  0.16644730  0.24685737  0.57458116    -0.82500
O24         O  0.16545522  0.24971144  0.42923700    -0.80400
O25         O  0.35911665  0.24126082  0.42727493    -0.79000
O26         O  0.32159891  0.34294139  0.49443882    -0.80600
O27         O  0.21083127  0.34634570  0.49812564    -0.82500
O28         O  0.36128860  0.29991924  0.49754142    -0.79200
O29         O  0.16918459  0.30492058  0.50145444    -0.81900
O30         O  0.32156071  0.24570616  0.63450158    -0.77600
O31         O  0.32165709  0.24602837  0.36728628    -0.77700
O32         O  0.20293243  0.24942769  0.36849523    -0.77300
O33         O  0.20447412  0.24848100  0.63408029    -0.80800
O34         O  0.26553818  0.34623369  0.57331157    -0.80200
O35         O  0.26272716  0.34698644  0.42692525    -0.78500
Eu36       Eu  0.26297492  0.24699281  0.59888235     2.39800
Eu37       Eu  0.26253632  0.24817154  0.40123521     2.39600
Eu38       Eu  0.32968011  0.24560400  0.50029954     2.38400
Eu39       Eu  0.19621378  0.24865228  0.50130897     2.39900
Eu40       Eu  0.26519642  0.31616345  0.50004498     2.39800
O41         O  0.23026035  0.28282501  0.45228132    -0.93000
O42         O  0.29798211  0.28134608  0.54921165    -0.91900
C43         C  0.26418323  0.33868833  0.61654392     1.02200
C44         C  0.26092744  0.34061059  0.38361609     1.00900
C45         C  0.35213058  0.24496755  0.61701561     1.00300
C46         C  0.17379530  0.24754747  0.61764441     1.02300
C47         C  0.17228195  0.24945491  0.38588184     1.01200
C48         C  0.35208511  0.24244242  0.38409715     1.00100
C49         C  0.35242270  0.33183777  0.49373858     1.00200
C50         C  0.17951717  0.33652674  0.49915019     1.02800
H51         H  0.31248671  0.29553245  0.43211668     0.30100
O52         O  0.29761926  0.28123572  0.45091436    -1.05100
H53         H  0.21610191  0.29759218  0.56736059     0.32200
O54         O  0.23031920  0.28265695  0.54926014    -1.07700
N55         N  0.46175063  0.49675178  0.45409548    -0.36700
N56         N  0.01382373  0.44430936  0.46062529    -0.57300
N57         N  0.06325023  0.49758314  0.46927938    -0.36700
N58         N  0.01264403  0.05055817  0.44059379    -0.57300
C59         C  0.44546693  0.46776397  0.46857300     0.26900
C60         C  0.44289301  0.02442300  0.56577782     0.26900
C61         C  0.08013288  0.46980600  0.48558198     0.26900
C62         C  0.08181219  0.02799797  0.46072289     0.26900
C63         C  0.48874844  0.42527943  0.44465523     0.35500
C64         C  0.04196807  0.42503538  0.45562889     0.35500
C65         C  0.48459032  0.07064453  0.54778685     0.35500
C66         C  0.04017646  0.07043543  0.43218452     0.35500
C67         C  0.41602831  0.47660161  0.49215601    -0.22000
C68         C  0.41158886  0.01271101  0.58184573    -0.22000
C69         C  0.10641671  0.48042381  0.51388480    -0.22000
C70         C  0.11037949  0.01899480  0.48594097    -0.22000
C71         C  0.49936112  0.39311082  0.42929678    -0.23100
C72         C  0.03387129  0.39253858  0.43865894    -0.23100
C73         C  0.49420590  0.10235705  0.52879414    -0.23100
C74         C  0.03073373  0.10209026  0.41338225    -0.23100
C75         C  0.45562277  0.43364323  0.45853940    -0.18400
C76         C  0.45089552  0.05925043  0.55514135    -0.18400
C77         C  0.07260148  0.06207240  0.44852777    -0.18400
C78         C  0.07375271  0.43550188  0.47218424    -0.18400
H79         H  0.39746339  0.45919821  0.50761739     0.14500
H80         H  0.39005760  0.02828975  0.59210290     0.14500
H81         H  0.12465844  0.46420371  0.53153819     0.14500
H82         H  0.12868344  0.03621943  0.50167484     0.14500
H83         H  0.48365551  0.37072746  0.42185698     0.12800
H84         H  0.05095720  0.37114374  0.43238563     0.12800
H85         H  0.47787679  0.12282521  0.51623986     0.12800
H86         H  0.04715825  0.12376912  0.40446665     0.12800
H87         H  0.48242426  0.49775825  0.43152735     0.26000
H88         H  0.04536769  0.49744880  0.44292273     0.26000
O89         O  0.48567423  0.43990404  0.86528175    -0.80200
O90         O  0.48187506  0.43421596  0.12933681    -0.81200
O91         O  0.04008982  0.40429575  0.00507255    -0.78800
O92         O  0.42673755  0.40273346  0.00490717    -0.77200
O93         O  0.38647244  0.44504392  0.00100062    -0.79000
O94         O  0.08065281  0.44675104  0.00583444    -0.79900
O95         O  0.48123715  0.39636039  0.06905117    -0.81300
O96         O  0.48277007  0.40057200  0.92458349    -0.81500
Eu97       Eu  0.48276501  0.42983737  0.99757634     2.39200
O98         O  0.44921181  0.46389980  0.04578615    -0.89100
O99         O  0.01891172  0.46683389  0.95166462    -0.92700
C100        C  0.48409485  0.40814632  0.88150901     1.02000
C101        C  0.48144647  0.40286419  0.11249336     1.01900
C102        C  0.07110184  0.41487859  0.00796685     1.01800
C103        C  0.39580725  0.41340464  0.00654610     0.99700
H104        H  0.03116112  0.45044003  0.06812675     0.29400
O105        O  0.01686392  0.46528144  0.04965969    -1.01400
H106        H  0.43560623  0.45103001  0.92978351     0.29400
O107        O  0.45038679  0.46534539  0.94832545    -1.04000
O108        O  0.48615269  0.05681997  0.13294249    -0.81200
O109        O  0.48626159  0.06348101  0.86566100    -0.80700
O110        O  0.07868657  0.49806699  0.07647169    -0.79200
O111        O  0.38656645  0.49670747  0.07058640    -0.82500
O112        O  0.38863609  0.00534627  0.92219986    -0.80400
O113        O  0.08058138  0.00364062  0.92744700    -0.79000
O114        O  0.03689107  0.10068839  0.00809878    -0.80600
O115        O  0.42884375  0.09936744  0.00689944    -0.82500
O116        O  0.07773755  0.05893638  0.00576454    -0.79200
O117        O  0.38784045  0.05758326  0.00234327    -0.81900
O118        O  0.04016528  0.49680637  0.13590130    -0.77600
O119        O  0.04538665  0.00408825  0.86536063    -0.77700
O120        O  0.42726629  0.00265374  0.86285317    -0.77300
O121        O  0.42352624  0.49625559  0.13144837    -0.80800
O122        O  0.48642010  0.09758350  0.07481052    -0.80200
O123        O  0.48421185  0.10061295  0.92665761    -0.78500
Eu124      Eu  0.48297582  0.49600671  0.09759551     2.39800
Eu125      Eu  0.48587735  0.00228667  0.89835847     2.39600
Eu126      Eu  0.05014796  0.50116381  0.00264538     2.38400
Eu127      Eu  0.41714165  0.49979447  0.99730034     2.39900
Eu128      Eu  0.48371646  0.06988799  0.99971612     2.39800
O129        O  0.45134953  0.03677707  0.94824157    -0.93000
O130        O  0.01585617  0.03556521  0.04785578    -0.91900
C131        C  0.48729406  0.08851423  0.11755006     1.02200
C132        C  0.48544378  0.09455850  0.88321766     1.00900
C133        C  0.07098347  0.49632764  0.11954616     1.00300
C134        C  0.39304192  0.49581091  0.11403979     1.02300
C135        C  0.39636560  0.00466516  0.87902435     1.01200
C136        C  0.07550549  0.00408932  0.88394068     1.00100
C137        C  0.06799839  0.09056204  0.00958218     1.00200
C138        C  0.39757378  0.08924513  0.00752722     1.02800
H139        H  0.03235324  0.05396466  0.93364249     0.30100
O140        O  0.01749087  0.03848862  0.95062717    -1.05100
H141        H  0.43569521  0.04873400  0.06662443     0.32200
O142        O  0.45005070  0.03457339  0.04745558    -1.07700
N143        N  0.28529312  0.25205026  0.06322595    -0.36700
N144        N  0.23236939  0.30380045  0.06346164    -0.57300
N145        N  0.18153924  0.25135822  0.05700438    -0.36700
N146        N  0.23379326  0.19930219  0.05829001    -0.57300
C147        C  0.30153985  0.28095497  0.04810661     0.26900
C148        C  0.30250024  0.22469493  0.04608782     0.26900
C149        C  0.16522497  0.27954169  0.04066582     0.26900
C150        C  0.16583176  0.22348048  0.03908418     0.26900
C151        C  0.25935868  0.32391567  0.07308426     0.35500
C152        C  0.20463232  0.32347776  0.06991369     0.35500
C153        C  0.26109721  0.17927765  0.06658389     0.35500
C154        C  0.20616965  0.17896713  0.06448588     0.35500
C155        C  0.32926932  0.27187495  0.02111230    -0.22000
C156        C  0.32982803  0.23631515  0.01978316    -0.22000
C157        C  0.13915807  0.26950707  0.01159296    -0.22000
C158        C  0.13951428  0.23393529  0.01064137    -0.22000
C159        C  0.24879782  0.35631222  0.08774456    -0.23100
C160        C  0.21384866  0.35602633  0.08574241    -0.23100
C161        C  0.25082203  0.14616292  0.07966054    -0.23100
C162        C  0.21581189  0.14596575  0.07834105    -0.23100
C163        C  0.29246328  0.31525526  0.05928190    -0.18400
C164        C  0.29446194  0.18954101  0.05477678    -0.18400
C165        C  0.17335938  0.18894478  0.05067326    -0.18400
C166        C  0.17242079  0.31386168  0.05358367    -0.18400
H167        H  0.34704285  0.28905473  0.00362721     0.14500
H168        H  0.34807785  0.22081342  0.00112200     0.14500
H169        H  0.12157998  0.28604881  0.99324669     0.14500
H170        H  0.12222469  0.21761601  0.99151567     0.14500
H171        H  0.26463698  0.37845697  0.09586915     0.12800
H172        H  0.19734464  0.37785613  0.09226668     0.12800
H173        H  0.26686072  0.12410730  0.08710866     0.12800
H174        H  0.19948019  0.12371396  0.08453254     0.12800
H175        H  0.26539579  0.25102867  0.08712034     0.26000
H176        H  0.19975814  0.25092851  0.08297827     0.26000
C177        C  0.04457743  0.25044402  0.28017207     0.86400
C178        C  0.04249669  0.21884531  0.24865141    -0.53900
C179        C  0.50923870  0.21351477  0.22302096     0.09300
C180        C  0.48554664  0.24499890  0.23158167     0.20200
C181        C  0.03959836  0.28212734  0.24864358    -0.54600
C182        C  0.50719146  0.27808843  0.22241196     0.09400
C183        C  0.50990694  0.24621803  0.30864425    -0.54100
C184        C  0.48005592  0.24504796  0.28418536     0.10000
H185        H  0.06171421  0.19882737  0.25033339     0.14500
H186        H  0.46160040  0.24428366  0.21173698     0.00200
H187        H  0.05574249  0.30501025  0.24915010     0.14800
H188        H  0.51025704  0.24704202  0.34600390     0.14600
C189        C  0.20017360  0.49814398  0.21861227     0.86400
C190        C  0.20486899  0.46660118  0.25015147    -0.53900
C191        C  0.23511315  0.46542236  0.27262250     0.09300
C192        C  0.25800989  0.49780913  0.26318668     0.20200
C193        C  0.20672688  0.03219278  0.24727597    -0.54600
C194        C  0.23654175  0.03263887  0.27110549     0.09400
C195        C  0.23224203  0.49816813  0.18700157    -0.54100
C196        C  0.26267133  0.49759563  0.21044260     0.10000
H197        H  0.18618564  0.44579673  0.25272638     0.14500
H198        H  0.28236028  0.49746242  0.28233736     0.00200
H199        H  0.18917934  0.05378975  0.24836387     0.14800
H200        H  0.23101704  0.49894885  0.14968923     0.14600
C201        C  0.04464674  0.25494471  0.71922004     0.86400
C202        C  0.03849287  0.28680436  0.74953816    -0.53900
C203        C  0.50904006  0.28444750  0.77244193     0.09300
C204        C  0.48746724  0.25116207  0.76443368     0.20200
C205        C  0.03943398  0.22376318  0.75153600    -0.54600
C206        C  0.51062378  0.21946091  0.77362918     0.09400
C207        C  0.51316257  0.25214514  0.68801066    -0.54100
C208        C  0.48261819  0.25048623  0.71186765     0.10000
H209        H  0.05585995  0.30844143  0.75230803     0.14500
H210        H  0.46341704  0.25014259  0.78450745     0.00200
H211        H  0.05832180  0.20346423  0.75507999     0.14800
H212        H  0.51479579  0.25332974  0.65076050     0.14600
C213        C  0.20554272  0.49693141  0.78039597     0.86400
C214        C  0.20719734  0.02581272  0.74483202    -0.53900
C215        C  0.23626394  0.02667693  0.71900220     0.09300
C216        C  0.26092451  0.49668981  0.72925783     0.20200
C217        C  0.20942218  0.46454672  0.75095950    -0.54600
C218        C  0.23866763  0.46298391  0.72537301     0.09400
C219        C  0.23946429  0.49858893  0.80772813    -0.54100
C220        C  0.26844557  0.49921230  0.78111565     0.10000
H221        H  0.18808228  0.04602612  0.74289718     0.14500
H222        H  0.28423999  0.49654571  0.70766695     0.00200
H223        H  0.19034418  0.44414669  0.75130006     0.14800
H224        H  0.24135805  0.49858128  0.84479491     0.14600
C225        C  0.10077219  0.49297674  0.15047951    -0.05600
C226        C  0.12795479  0.47204906  0.13608609    -0.33000
C227        C  0.15956918  0.47309650  0.15813163     0.36200
C228        C  0.16531136  0.49647399  0.19456501    -0.05900
C229        C  0.13771121  0.01396175  0.20971512    -0.32900
C230        C  0.10593903  0.01231034  0.18722442     0.36100
H231        H  0.12483591  0.45505489  0.10679178     0.16500
O232        O  0.18442860  0.45044329  0.14453293    -0.60400
H233        H  0.13870488  0.02671594  0.24272531     0.16500
O234        O  0.07784905  0.02734958  0.20683133    -0.60500
H235        H  0.08431070  0.05171759  0.21326497     0.43500
H236        H  0.19118584  0.45793549  0.11300544     0.43500
C237        C  0.36215814  0.49358786  0.14420556    -0.05600
C238        C  0.33570534  0.47103491  0.13105011    -0.33000
C239        C  0.30355156  0.47204003  0.15223968     0.36200
C240        C  0.29697684  0.49587816  0.18769459    -0.05900
C241        C  0.32379153  0.51750408  0.20237079    -0.32900
C242        C  0.35609522  0.51657986  0.18086842     0.36100
H243        H  0.33978677  0.45289349  0.10321842     0.16500
O244        O  0.27902368  0.44879394  0.13897484    -0.60400
H245        H  0.31936493  0.53597596  0.22967953     0.16500
O246        O  0.38062843  0.53988572  0.19377015    -0.60500
H247        H  0.39328484  0.52812897  0.21882155     0.43500
H248        H  0.27056125  0.45762673  0.10899411     0.43500
C249        C  0.49544598  0.30952946  0.19612950    -0.05600
C250        C  0.99897710  0.34517160  0.21778438    -0.33000
C251        C  0.99276649  0.37581070  0.19249462     0.36200
C252        C  0.48265948  0.37130202  0.14370361    -0.05900
C253        C  0.47728094  0.33781256  0.12503907    -0.32900
C254        C  0.48299716  0.30732573  0.15095237     0.36100
H255        H  0.00379634  0.34700294  0.25440617     0.16500
O256        O  0.99246805  0.40696762  0.21497831    -0.60400
H257        H  0.46956352  0.33499962  0.08950543     0.16500
O258        O  0.47870027  0.27561184  0.13058042    -0.60500
H259        H  0.45387721  0.27101943  0.13184043     0.43500
H260        H  0.01671149  0.41361012  0.21827507     0.43500
C261        C  0.50159388  0.18195961  0.19476963    -0.05600
C262        C  0.03254550  0.16126031  0.18214225    -0.33000
C263        C  0.02648939  0.12909432  0.16103548     0.36200
C264        C  0.49231311  0.11744960  0.14975132    -0.05900
C265        C  0.46448147  0.13461362  0.16955483    -0.32900
C266        C  0.46893705  0.16650821  0.19241831     0.36100
H267        H  0.05875281  0.16885106  0.18706342     0.16500
O268        O  0.05350166  0.10892319  0.14802951    -0.60400
H269        H  0.43919587  0.12361819  0.16652048     0.16500
O270        O  0.44147312  0.18160097  0.21333061    -0.60500
H271        H  0.42824496  0.19223116  0.18791691     0.43500
H272        H  0.06531125  0.10271159  0.17700151     0.43500
C273        C  0.14684706  0.34077761  0.04370628    -0.05600
C274        C  0.15483675  0.36764041  0.01258488    -0.33000
C275        C  0.13041482  0.39212996  0.00043332     0.36200
C276        C  0.09712196  0.38890847  0.01795051    -0.05900
C277        C  0.08912249  0.36192962  0.04892923    -0.32900
C278        C  0.11381304  0.33809481  0.06218726     0.36100
H279        H  0.18005169  0.36949914  0.99751495     0.16500
O280        O  0.13902622  0.41848555  0.97050631    -0.60400
H281        H  0.06386834  0.35981861  0.06386370     0.16500
O282        O  0.10578933  0.31265217  0.09386192    -0.60500
H283        H  0.09001003  0.29664739  0.07790522     0.43500
H284        H  0.15342677  0.43448118  0.98868227     0.43500
C285        C  0.36937377  0.38815691  0.01932645    -0.05600
C286        C  0.33693468  0.39048538  0.99983604    -0.33000
C287        C  0.31108737  0.36776537  0.01390342     0.36200
C288        C  0.31734119  0.34310515  0.04892372    -0.05900
C289        C  0.34937103  0.34173563  0.06959214    -0.32900
C290        C  0.37538036  0.36382315  0.05479611     0.36100
H291        H  0.33184442  0.40950265  0.97308385     0.16500
O292        O  0.28012376  0.36928567  0.99248879    -0.60400
H293        H  0.35446306  0.32266309  0.09628863     0.16500
O294        O  0.40647189  0.36172309  0.07569513    -0.60500
H295        H  0.40541261  0.37831065  0.10160822     0.43500
H296        H  0.28074903  0.35088805  0.96881102     0.43500
C297        C  0.32056222  0.16283091  0.04437171    -0.05600
C298        C  0.31376161  0.13745005  0.01115853    -0.33000
C299        C  0.33863516  0.11349819  0.99838374     0.36200
C300        C  0.37128033  0.11528280  0.01794595    -0.05900
C301        C  0.37818607  0.14085187  0.05087382    -0.32900
C302        C  0.35308877  0.16435605  0.06436569     0.36100
H303        H  0.28915626  0.13648894  0.99461453     0.16500
O304        O  0.33119775  0.08934295  0.96543619    -0.60400
H305        H  0.40290529  0.14210641  0.06710544     0.16500
O306        O  0.36023229  0.18828302  0.09780846    -0.60500
H307        H  0.37660895  0.20485538  0.08349921     0.43500
H308        H  0.31948687  0.07016592  0.98219641     0.43500
C309        C  0.09447458  0.11657192  0.01826497    -0.05600
C310        C  0.08850467  0.14254628  0.05082232    -0.33000
C311        C  0.11456504  0.16526792  0.06334340     0.36200
C312        C  0.14682287  0.16253996  0.04240563    -0.05900
C313        C  0.15251665  0.13712533  0.00915031    -0.32900
C314        C  0.12674754  0.11392940  0.99749428     0.36100
H315        H  0.06388890  0.14467745  0.06744110     0.16500
O316        O  0.10860701  0.18976248  0.09648106    -0.60400
H317        H  0.17691078  0.13553675  0.99178665     0.16500
O318        O  0.13310068  0.08924192  0.96495275    -0.60500
H319        H  0.14686525  0.07150458  0.98116234     0.43500
H320        H  0.09404468  0.20748155  0.08156697     0.43500
C321        C  0.30337193  0.50337186  0.80133419    -0.05600
C322        C  0.33116102  0.48345554  0.78584339    -0.33000
C323        C  0.36298112  0.48486891  0.80841427     0.36200
C324        C  0.36649877  0.00671248  0.84750972    -0.05900
C325        C  0.34022235  0.02984208  0.85876087    -0.32900
C326        C  0.30863940  0.02857107  0.83663867     0.36100
H327        H  0.32780457  0.46565285  0.75752371     0.16500
O328        O  0.38869018  0.46349115  0.79432482    -0.60400
H329        H  0.34390724  0.04857165  0.88595500     0.16500
O330        O  0.28425882  0.05244388  0.84795974    -0.60500
H331        H  0.27601385  0.04557833  0.87908777     0.43500
H332        H  0.40390719  0.47842514  0.77525950     0.43500
C333        C  0.17157616  0.49737785  0.80787850    -0.05600
C334        C  0.17102979  0.50188987  0.85577275    -0.33000
C335        C  0.14067368  0.50296006  0.88090470     0.36200
C336        C  0.10759336  0.00416541  0.85560683    -0.05900
C337        C  0.10816850  0.99345025  0.80952016    -0.32900
C338        C  0.13919335  0.99061091  0.78509376     0.36100
H339        H  0.19395918  0.50537096  0.87519841     0.16500
O340        O  0.14321406  0.50845468  0.92742299    -0.60400
H341        H  0.08464479  0.98659920  0.79256654     0.16500
O342        O  0.13827730  0.97999574  0.74014447    -0.60500
H343        H  0.13631094  0.00160621  0.72162387     0.43500
H344        H  0.15031676  0.48590907  0.94079377     0.43500
C345        C  0.48729853  0.12641728  0.85295934    -0.05600
C346        C  0.49574112  0.12408043  0.80596110    -0.33000
C347        C  0.50172645  0.15418676  0.77920287     0.36200
C348        C  0.49986261  0.18748026  0.79932180    -0.05900
C349        C  0.98160767  0.19198869  0.84207657    -0.32900
C350        C  0.97535004  0.16194417  0.86899037     0.36100
H351        H  0.49857520  0.09890668  0.79009454     0.16500
O352        O  0.50968472  0.15076560  0.73340231    -0.60400
H353        H  0.97507925  0.21716154  0.85583390     0.16500
O354        O  0.95933458  0.16564598  0.91077608    -0.60500
H355        H  0.97668328  0.17568125  0.93153170     0.43500
H356        H  0.48768749  0.15266879  0.71704160     0.43500
C357        C  0.48490408  0.37708494  0.85030921    -0.05600
C358        C  0.99731814  0.38251814  0.80663024    -0.33000
C359        C  0.00307353  0.35310742  0.77918176     0.36200
C360        C  0.49738820  0.31645137  0.79691999    -0.05900
C361        C  0.48320361  0.31357807  0.84093391    -0.32900
C362        C  0.47691979  0.34317789  0.86750094     0.36100
H363        H  0.00379745  0.40795524  0.79296876     0.16500
O364        O  0.01474587  0.35779150  0.73488387    -0.60400
H365        H  0.47842501  0.28812990  0.85582207     0.16500
O366        O  0.46428265  0.33826895  0.91123732    -0.60500
H367        H  0.43943641  0.33510421  0.90740424     0.43500
H368        H  0.03786564  0.36793406  0.73773184     0.43500
C369        C  0.44818773  0.24691222  0.68982284    -0.05600
C370        C  0.41875273  0.26092043  0.71081249    -0.33000
C371        C  0.38645435  0.25845149  0.68983688     0.36200
C372        C  0.38326016  0.24278220  0.64640809    -0.05900
C373        C  0.41235210  0.22730672  0.62703587    -0.32900
C374        C  0.44409530  0.22867781  0.64835233     0.36100
H375        H  0.42074292  0.27477322  0.74297192     0.16500
O376        O  0.35883858  0.27326763  0.71073647    -0.60400
H377        H  0.41088814  0.21463361  0.59400650     0.16500
O378        O  0.47065514  0.21091202  0.62896623    -0.60500
H379        H  0.47582308  0.22306836  0.59947275     0.43500
H380        H  0.35050646  0.25558867  0.73317091     0.43500
C381        C  0.14378598  0.24726441  0.64879051    -0.05600
C382        C  0.11725191  0.22380967  0.63984191    -0.33000
C383        C  0.08569431  0.22627987  0.66227841     0.36200
C384        C  0.07944440  0.25309960  0.69419915    -0.05900
C385        C  0.10687836  0.27590887  0.70414634    -0.32900
C386        C  0.13857557  0.27310745  0.68180536     0.36100
H387        H  0.12080676  0.20367591  0.61440838     0.16500
O388        O  0.06112949  0.20192320  0.65310774    -0.60400
H389        H  0.10474738  0.29598696  0.72953075     0.16500
O390        O  0.16355335  0.29710482  0.69051674    -0.60500
H391        H  0.17562653  0.28808885  0.71798175     0.43500
H392        H  0.05297726  0.20745021  0.62162552     0.43500
C393        C  0.25156221  0.12392930  0.64532061    -0.05600
C394        C  0.27860675  0.10920404  0.67007882    -0.33000
C395        C  0.27496036  0.07649518  0.69206170     0.36200
C396        C  0.24385084  0.05805978  0.68960465    -0.05900
C397        C  0.21732548  0.07269718  0.66372885    -0.32900
C398        C  0.22107627  0.10490154  0.64155135     0.36100
H399        H  0.30278883  0.12270783  0.67156418     0.16500
O400        O  0.30139930  0.06365000  0.71746395    -0.60400
H401        H  0.19322222  0.05916204  0.66098959     0.16500
O402        O  0.19450778  0.11790490  0.61637719    -0.60500
H403        H  0.19460830  0.10471669  0.58715812     0.43500
H404        H  0.31682214  0.05270199  0.69474287     0.43500
C405        C  0.24862240  0.43019613  0.70056285    -0.05600
C406        C  0.26761748  0.43221602  0.65965165    -0.33000
C407        C  0.27455960  0.40240163  0.63364463     0.36200
C408        C  0.26241883  0.36928546  0.64806169    -0.05900
C409        C  0.24537432  0.36683764  0.69048496    -0.32900
C410        C  0.23887656  0.39657481  0.71686951     0.36100
H411        H  0.27622532  0.45717603  0.64666516     0.16500
O412        O  0.29346626  0.40600532  0.59400421    -0.60400
H413        H  0.23607920  0.34188893  0.70274069     0.16500
O414        O  0.22293385  0.39211131  0.75864121    -0.60500
H415        H  0.24133123  0.39305027  0.78180890     0.43500
H416        H  0.27771547  0.41586735  0.57082526     0.43500
C417        C  0.37145108  0.13100787  0.52315929    -0.05600
C418        C  0.39350393  0.13771432  0.55987173    -0.33000
C419        C  0.41902596  0.11425828  0.57160827     0.36200
C420        C  0.42260032  0.08354723  0.54631453    -0.05900
C421        C  0.39959378  0.07613465  0.51083922    -0.32900
C422        C  0.37377312  0.09942206  0.49967900     0.36100
H423        H  0.39057249  0.16102477  0.57988087     0.16500
O424        O  0.43992246  0.12109393  0.60820281    -0.60400
H425        H  0.40198817  0.05238019  0.49137643     0.16500
O426        O  0.35175035  0.09163753  0.46484122    -0.60500
H427        H  0.33422965  0.07648698  0.47941533     0.43500
H428        H  0.45406735  0.14126924  0.59850181     0.43500
C429        C  0.09722948  0.09008614  0.45702904    -0.05600
C430        C  0.12838148  0.08976310  0.43360930    -0.33000
C431        C  0.15396840  0.11303830  0.44534867     0.36200
C432        C  0.14827516  0.13725705  0.48060801    -0.05900
C433        C  0.11661596  0.13848997  0.50285878    -0.32900
C434        C  0.09112174  0.11483427  0.49144514     0.36100
H435        H  0.13307097  0.07082312  0.40693210     0.16500
O436        O  0.18394136  0.11288895  0.42094317    -0.60400
H437        H  0.11192985  0.15731611  0.52967795     0.16500
O438        O  0.06103028  0.11484875  0.51556277    -0.60500
H439        H  0.04729196  0.13351634  0.50126718     0.43500
H440        H  0.19743712  0.09377611  0.43460434     0.43500
C441        C  0.10072269  0.40976526  0.47873334    -0.05600
C442        C  0.09676243  0.38385231  0.51243947    -0.33000
C443        C  0.12290683  0.36040621  0.52074211     0.36200
C444        C  0.15336805  0.36303605  0.49520440    -0.05900
C445        C  0.15744682  0.38933166  0.46201938    -0.32900
C446        C  0.13117812  0.41253765  0.45345979     0.36100
H447        H  0.07345303  0.38201016  0.53240351     0.16500
O448        O  0.11844193  0.33494788  0.55357981    -0.60400
H449        H  0.18052630  0.39107269  0.44153158     0.16500
O450        O  0.13487981  0.43707906  0.41927326    -0.60500
H451        H  0.14738044  0.45655687  0.43365060     0.43500
H452        H  0.12744359  0.34495542  0.58245965     0.43500
C453        C  0.37931893  0.35723379  0.48478326    -0.05600
C454        C  0.40811917  0.35841397  0.51295254    -0.33000
C455        C  0.43388208  0.38265645  0.50390857     0.36200
C456        C  0.43085050  0.40551185  0.46612697    -0.05900
C457        C  0.40263489  0.40350395  0.43722748    -0.32900
C458        C  0.37697628  0.37940492  0.44623661     0.36100
H459        H  0.41024162  0.34108771  0.54237752     0.16500
O460        O  0.46102930  0.38507164  0.53321548    -0.60400
H461        H  0.40037937  0.42100541  0.40800276     0.16500
O462        O  0.34984403  0.37736572  0.41690029    -0.60500
H463        H  0.35686390  0.36080052  0.39270221     0.43500
H464        H  0.47673048  0.36634806  0.52375097     0.43500
C465        C  0.14165353  0.24819903  0.35574436    -0.05600
C466        C  0.11350375  0.22815250  0.37035941    -0.33000
C467        C  0.08255676  0.22861957  0.34655224     0.36200
C468        C  0.07818957  0.25057453  0.30778033    -0.05900
C469        C  0.10725678  0.26924527  0.29182172    -0.32900
C470        C  0.13834249  0.26861463  0.31575122     0.36100
H471        H  0.11550341  0.21178357  0.40076393     0.16500
O472        O  0.05673975  0.20739645  0.36189422    -0.60400
H473        H  0.10651254  0.28422740  0.26025518     0.16500
O474        O  0.16497147  0.28871239  0.30025256    -0.60500
H475        H  0.16269600  0.31105551  0.31670668     0.43500
H476        H  0.05893547  0.18580717  0.34378487     0.43500
C477        C  0.38222317  0.23964772  0.35325270    -0.05600
C478        C  0.38716968  0.26283492  0.31627176    -0.33000
C479        C  0.41862522  0.26447500  0.29279704     0.36200
C480        C  0.44580267  0.24296095  0.30656397    -0.05900
C481        C  0.44033722  0.21901233  0.34247030    -0.32900
C482        C  0.40900687  0.21703208  0.36540622     0.36100
H483        H  0.36728895  0.28092514  0.30709002     0.16500
O484        O  0.42332819  0.28898705  0.25883314    -0.60400
H485        H  0.46060136  0.20179063  0.35300934     0.16500
O486        O  0.40521266  0.19353650  0.40088988    -0.60500
H487        H  0.39194034  0.17403660  0.38783696     0.43500
H488        H  0.41099772  0.27996010  0.23169945     0.43500
C489        C  0.25801559  0.37242378  0.35290034    -0.05600
C490        C  0.24889895  0.36981470  0.30621455    -0.33000
C491        C  0.24278584  0.39979260  0.27916530     0.36200
C492        C  0.24558377  0.43338711  0.29847749    -0.05900
C493        C  0.25610906  0.43614690  0.34405796    -0.32900
C494        C  0.26224050  0.40648830  0.37114053     0.36100
H495        H  0.24561192  0.34450769  0.29084144     0.16500
O496        O  0.23357982  0.39592474  0.23395939    -0.60400
H497        H  0.25836456  0.46156005  0.35951139     0.16500
O498        O  0.27112056  0.41146593  0.41624942    -0.60500
H499        H  0.29538742  0.41848388  0.41537243     0.43500
H500        H  0.25529810  0.39475129  0.21654214     0.43500
C501        C  0.24739920  0.06427507  0.29728024    -0.05600
C502        C  0.25722768  0.06088316  0.34316676    -0.33000
C503        C  0.26295142  0.09017890  0.37059875     0.36200
C504        C  0.25948718  0.12449734  0.35232992    -0.05900
C505        C  0.25169663  0.12774215  0.30528626    -0.32900
C506        C  0.24537596  0.09815673  0.27803707     0.36100
H507        H  0.25898333  0.03526677  0.35862497     0.16500
O508        O  0.27069272  0.08454345  0.41600227    -0.60400
H509        H  0.24929917  0.15326707  0.28980110     0.16500
O510        O  0.23760922  0.10260371  0.23233919    -0.60500
H511        H  0.21448244  0.11273152  0.23193502     0.43500
H512        H  0.29571467  0.08207608  0.41645277     0.43500
O513        O  0.26070774  0.68704410  0.36423489    -0.80200
O514        O  0.26100154  0.68787726  0.63017654    -0.81800
O515        O  0.31571280  0.65021898  0.49229408    -0.78800
O516        O  0.20540936  0.65268296  0.49572705    -0.77200
O517        O  0.16495354  0.69483054  0.49809907    -0.79000
O518        O  0.35747517  0.69149929  0.49405780    -0.79900
O519        O  0.25968870  0.64873776  0.57099194    -0.81300
O520        O  0.26019880  0.64940781  0.42533024    -0.81500
Eu521      Eu  0.26153047  0.67999541  0.49778096     2.39200
O522        O  0.22880418  0.71448416  0.54676346    -0.89100
O523        O  0.29564849  0.71402436  0.44861821    -0.92700
C524        C  0.25984508  0.65563324  0.38183796     1.02000
C525        C  0.25932350  0.65640099  0.61405421     1.01900
C526        C  0.34700766  0.65996222  0.49118955     1.01800
C527        C  0.17436812  0.66304885  0.49581316     0.99700
H528        H  0.31087522  0.69796450  0.56370055     0.29400
O529        O  0.29666119  0.71318721  0.54571413    -1.01400
H530        H  0.21385068  0.70005798  0.43066485     0.29400
O531        O  0.22870667  0.71464997  0.44864444    -1.04000
O532        O  0.26254105  0.80859126  0.62967831    -0.81200
O533        O  0.26147594  0.80972710  0.36297734    -0.80700
O534        O  0.36060143  0.74564489  0.56892596    -0.79200
O535        O  0.16714312  0.74776398  0.57220068    -0.82500
O536        O  0.16603925  0.74814756  0.42458936    -0.80400
O537        O  0.35984197  0.74524155  0.42252271    -0.79000
O538        O  0.31962356  0.84621789  0.50040318    -0.80600
O539        O  0.21046642  0.84682144  0.48812828    -0.82500
O540        O  0.35946063  0.80335298  0.50300408    -0.79200
O541        O  0.16876885  0.80552754  0.49325152    -0.81900
O542        O  0.32320445  0.74830817  0.62952166    -0.77600
O543        O  0.32206082  0.74548742  0.36265049    -0.77700
O544        O  0.20385312  0.74942407  0.36413266    -0.77300
O545        O  0.20552284  0.74862364  0.63134886    -0.80800
O546        O  0.26182487  0.84716071  0.56943855    -0.80200
O547        O  0.26427081  0.84793424  0.42268887    -0.78500
Eu548      Eu  0.26380981  0.74850123  0.59542712     2.39800
Eu549      Eu  0.26303670  0.74851515  0.39755712     2.39600
Eu550      Eu  0.33022912  0.74780342  0.49620673     2.38400
Eu551      Eu  0.19602981  0.74932570  0.49777983     2.39900
Eu552      Eu  0.26458504  0.81717738  0.49581096     2.39800
O553        O  0.23034232  0.78293639  0.44839508    -0.93000
O554        O  0.29771103  0.78274778  0.54476204    -0.91900
C555        C  0.26169950  0.84004784  0.61286337     1.02200
C556        C  0.26234734  0.84122306  0.37949276     1.00900
C557        C  0.35388245  0.74649578  0.61237378     1.00300
C558        C  0.17472480  0.74770514  0.61530217     1.02300
C559        C  0.17315436  0.74851494  0.38123854     1.01200
C560        C  0.35273008  0.74391234  0.37932422     1.00100
C561        C  0.35028976  0.83529571  0.50452147     1.00200
C562        C  0.17921913  0.83696858  0.48833134     1.02800
H563        H  0.31302369  0.79776059  0.42813247     0.30100
O564        O  0.29811970  0.78309457  0.44637805    -1.05100
H565        H  0.21551084  0.79856476  0.56346179     0.32200
O566        O  0.23008054  0.78365049  0.54560076    -1.07700
N567        N  0.46257452  0.99713307  0.55461472    -0.36700
N568        N  0.01459283  0.94602308  0.45149105    -0.57300
N569        N  0.06549526  0.99912966  0.44675731    -0.36700
N570        N  0.01117278  0.54893253  0.46029633    -0.57300
C571        C  0.44394592  0.96821644  0.56239029     0.26900
C572        C  0.44318010  0.52400550  0.46858414     0.26900
C573        C  0.08336158  0.97189689  0.46281217     0.26900
C574        C  0.07860100  0.52587269  0.48659067     0.26900
C575        C  0.48726221  0.92474521  0.54074471     0.35500
C576        C  0.04208054  0.92587793  0.44532379     0.35500
C577        C  0.48400508  0.56951386  0.44646874     0.35500
C578        C  0.03883491  0.56933160  0.45625810     0.35500
C579        C  0.41221951  0.97707803  0.57954942    -0.22000
C580        C  0.41460955  0.51222405  0.49223350    -0.22000
C581        C  0.11146570  0.98341348  0.48699204    -0.22000
C582        C  0.10547292  0.51607366  0.51447309    -0.22000
C583        C  0.49746675  0.89350318  0.52187083    -0.23100
C584        C  0.03236364  0.89201998  0.43614549    -0.23100
C585        C  0.49351717  0.60221974  0.43068951    -0.23100
C586        C  0.03005624  0.60176585  0.43924936    -0.23100
C587        C  0.45336382  0.93472132  0.54843278    -0.18400
C588        C  0.45105114  0.55907575  0.45915271    -0.18400
C589        C  0.07061612  0.56011444  0.47406516    -0.18400
C590        C  0.07535301  0.93697176  0.45463979    -0.18400
H591        H  0.39129302  0.95972562  0.58777123     0.14500
H592        H  0.39483336  0.52761892  0.50797245     0.14500
H593        H  0.13061502  0.96780649  0.50381918     0.14500
H594        H  0.12287652  0.53288518  0.53263990     0.14500
H595        H  0.48150743  0.87261868  0.50958212     0.12800
H596        H  0.04865507  0.86980768  0.43110206     0.12800
H597        H  0.47703129  0.62357548  0.42157488     0.12800
H598        H  0.04660438  0.62394457  0.43369890     0.12800
H599        H  0.48488002  0.99832764  0.53533270     0.26000
H600        H  0.04545689  0.99799986  0.42347449     0.26000
O601        O  0.48708624  0.94104182  0.86460229    -0.80200
O602        O  0.48329097  0.93768239  0.12873818    -0.81200
O603        O  0.04032476  0.90549220  0.99796294    -0.78800
O604        O  0.42975152  0.90507847  0.99706354    -0.77200
O605        O  0.38852866  0.94658338  0.99482667    -0.79000
O606        O  0.08045101  0.94844424  0.99846999    -0.79900
O607        O  0.48323000  0.89982219  0.06851594    -0.81300
O608        O  0.48687828  0.90233969  0.92463698    -0.81500
Eu609      Eu  0.48498220  0.93285975  0.99665471     2.39200
O610        O  0.44994479  0.96595175  0.04453905    -0.89100
O611        O  0.01850913  0.96835904  0.94833418    -0.92700
C612        C  0.48719975  0.90939367  0.88139454     1.02000
C613        C  0.48315018  0.90641179  0.11193293     1.01900
C614        C  0.07129275  0.91644103  0.99913714     1.01800
C615        C  0.39866186  0.91501130  0.99644857     0.99700
H616        H  0.03170430  0.95086730  0.06379392     0.29400
O617        O  0.01718136  0.96583612  0.04576513    -1.01400
H618        H  0.43705902  0.95292114  0.92936128     0.29400
O619        O  0.45141950  0.96760640  0.94799049    -1.04000
O620        O  0.48804376  0.55503805  0.13440725    -0.81200
O621        O  0.48718109  0.56269999  0.86831491    -0.80700
O622        O  0.07983132  0.99963852  0.07140741    -0.79200
O623        O  0.38730133  0.99875412  0.07001518    -0.82500
O624        O  0.38902427  0.50314402  0.92238274    -0.80400
O625        O  0.08083979  0.50042869  0.93077735    -0.79000
O626        O  0.03706170  0.59910532  0.00704504    -0.80600
O627        O  0.43088406  0.59763363  0.00748287    -0.82500
O628        O  0.07780565  0.55716461  0.00699887    -0.79200
O629        O  0.38977936  0.55593669  0.00171125    -0.81900
O630        O  0.04174780  0.99734317  0.13121618    -0.77600
O631        O  0.04590892  0.50081520  0.86849505    -0.77700
O632        O  0.42792048  0.50237098  0.86326491    -0.77300
O633        O  0.42459788  0.99870546  0.13047105    -0.80800
O634        O  0.48942458  0.59574412  0.07623754    -0.80200
O635        O  0.48601428  0.60035667  0.92894200    -0.78500
Eu636      Eu  0.48359191  0.99861870  0.09582140     2.39800
Eu637      Eu  0.48587116  0.50067275  0.89988771     2.39600
Eu638      Eu  0.04991395  0.00281570  0.99899540     2.38400
Eu639      Eu  0.41727141  0.00198418  0.99632888     2.39900
Eu640      Eu  0.48506728  0.56764805  0.00137646     2.39800
O641        O  0.45192684  0.53486530  0.95027684    -0.93000
O642        O  0.01591296  0.53451029  0.05075393    -0.91900
C643        C  0.49042038  0.58682670  0.11904212     1.02200
C644        C  0.48691612  0.59402220  0.88542383     1.00900
C645        C  0.07260391  0.99761158  0.11455852     1.00300
C646        C  0.39405620  0.99817436  0.11339831     1.02300
C647        C  0.39694991  0.50361631  0.87917178     1.01200
C648        C  0.07606444  0.50036071  0.88716833     1.00100
C649        C  0.06809115  0.58888203  0.00844824     1.00200
C650        C  0.39971584  0.58751944  0.00626015     1.02800
H651        H  0.03264098  0.55155788  0.93669367     0.30100
O652        O  0.01763620  0.53642500  0.95393680    -1.05100
H653        H  0.43604179  0.54681332  0.06770282     0.32200
O654        O  0.45030302  0.53245892  0.04858510    -1.07700
N655        N  0.28572851  0.75026706  0.02210350    -0.36700
N656        N  0.23498819  0.80327061  0.02003184    -0.57300
N657        N  0.18323738  0.75186287  0.03029969    -0.36700
N658        N  0.23426186  0.69873452  0.03246539    -0.57300
C659        C  0.30287581  0.77725059  0.00344093     0.26900
C660        C  0.30299490  0.72145740  0.01105822     0.26900
C661        C  0.16641859  0.77932158  0.01281192     0.26900
C662        C  0.16570148  0.72336733  0.01806682     0.26900
C663        C  0.26295559  0.82250197  0.02682228     0.35500
C664        C  0.20854769  0.82341384  0.03133562     0.35500
C665        C  0.26154286  0.67873508  0.04064979     0.35500
C666        C  0.20677853  0.67956130  0.04379258     0.35500
C667        C  0.33128007  0.76555980  0.97981018    -0.22000
C668        C  0.33141365  0.73008049  0.98475963    -0.22000
C669        C  0.13815743  0.76827766  0.98865265    -0.22000
C670        C  0.13768208  0.73272723  0.99196994    -0.22000
C671        C  0.25447417  0.85492341  0.04366388    -0.23100
C672        C  0.21962155  0.85551612  0.04647826    -0.23100
C673        C  0.25149932  0.64662382  0.05784564    -0.23100
C674        C  0.21657197  0.64718574  0.06002438    -0.23100
C675        C  0.29515754  0.81209271  0.01198943    -0.18400
C676        C  0.29469930  0.68805019  0.02710627    -0.18400
C677        C  0.17348830  0.68947586  0.03251715    -0.18400
C678        C  0.17504210  0.81399877  0.02152626    -0.18400
H679        H  0.35031236  0.78103657  0.96194159     0.14500
H680        H  0.35048325  0.71269977  0.97122132     0.14500
H681        H  0.11968247  0.78419480  0.97097862     0.14500
H682        H  0.11872601  0.71574596  0.97719805     0.14500
H683        H  0.27148147  0.87622599  0.05142844     0.12800
H684        H  0.20423083  0.87734395  0.05680613     0.12800
H685        H  0.26753047  0.62472999  0.06614738     0.12800
H686        H  0.20026568  0.62575245  0.07029423     0.12800
H687        H  0.26611104  0.75183247  0.04625175     0.26000
H688        H  0.20319991  0.75275237  0.05378679     0.26000
C689        C  0.04529163  0.75082948  0.27622135     0.86400
C690        C  0.04344092  0.71982291  0.24382619    -0.53900
C691        C  0.51340155  0.71587722  0.21868609     0.09300
C692        C  0.48811390  0.74633963  0.22717291     0.20200
C693        C  0.03905036  0.78286309  0.24557577    -0.54600
C694        C  0.50817754  0.78094264  0.21991806     0.09400
C695        C  0.51099919  0.74764845  0.30490205    -0.54100
C696        C  0.48154004  0.74527631  0.27959572     0.10000
H697        H  0.06303551  0.70008627  0.24372634     0.14500
H698        H  0.46469894  0.74464151  0.20643881     0.00200
H699        H  0.05485931  0.80593959  0.24585663     0.14800
H700        H  0.51072569  0.74835742  0.34226458     0.14600
C701        C  0.20171578  0.00051962  0.21614601     0.86400
C702        C  0.20567096  0.96885593  0.24767616    -0.53900
C703        C  0.23554631  0.96727859  0.27118602     0.09300
C704        C  0.25863891  0.99976938  0.26291879     0.20200
C705        C  0.20594589  0.53013038  0.24906565    -0.54600
C706        C  0.23608126  0.53063171  0.27189674     0.09400
C707        C  0.23445371  0.00095733  0.18594999    -0.54100
C708        C  0.26430960  0.99993565  0.21041842     0.10000
H709        H  0.18668535  0.94831985  0.24946060     0.14500
H710        H  0.28268733  0.99932029  0.28275192     0.00200
H711        H  0.18893382  0.55214438  0.25026323     0.14800
H712        H  0.23424728  0.00278020  0.14867936     0.14600
C713        C  0.04640749  0.75274858  0.71986923     0.86400
C714        C  0.04100253  0.78421255  0.75116283    -0.53900
C715        C  0.51068980  0.78447568  0.77221040     0.09300
C716        C  0.48845611  0.75145949  0.76374111     0.20200
C717        C  0.04098170  0.72115564  0.75114193    -0.54600
C718        C  0.51134279  0.71913263  0.77252662     0.09400
C719        C  0.51380337  0.75295291  0.68705482    -0.54100
C720        C  0.48341742  0.75141560  0.71097602     0.10000
H721        H  0.05894620  0.80540567  0.75375613     0.14500
H722        H  0.46423673  0.75084284  0.78351546     0.00200
H723        H  0.05955148  0.70046626  0.75382174     0.14800
H724        H  0.51497091  0.75479303  0.64980754     0.14600
C725        C  0.20485242  0.99643523  0.78022171     0.86400
C726        C  0.20829120  0.52737516  0.74655115    -0.53900
C727        C  0.23706549  0.52830312  0.71980921     0.09300
C728        C  0.26062881  0.99607118  0.73017871     0.20200
C729        C  0.20989022  0.96302442  0.75293978    -0.54600
C730        C  0.23903749  0.96208195  0.72714048     0.09400
C731        C  0.23834258  0.99957287  0.80822347    -0.54100
C732        C  0.26754990  0.99980768  0.78206128     0.10000
H733        H  0.18961064  0.54802176  0.74630176     0.14500
H734        H  0.28408369  0.99589950  0.70877876     0.00200
H735        H  0.19190283  0.94159163  0.75443033     0.14800
H736        H  0.23960427  0.00003044  0.84542721     0.14600
C737        C  0.10312088  0.99509513  0.14491617    -0.05600
C738        C  0.13186387  0.97756399  0.12794012    -0.33000
C739        C  0.16329358  0.97875767  0.15050917     0.36200
C740        C  0.16743717  0.99912150  0.19041589    -0.05900
C741        C  0.13672232  0.51465996  0.21191791    -0.32900
C742        C  0.10485777  0.51312319  0.19012295     0.36100
H743        H  0.13002907  0.96271945  0.09646300     0.16500
O744        O  0.18933566  0.95860485  0.13423301    -0.60400
H745        H  0.13845056  0.52990733  0.24286657     0.16500
O746        O  0.07815827  0.53180147  0.20742152    -0.60500
H747        H  0.08236056  0.55603240  0.19719340     0.43500
H748        H  0.19542029  0.96840631  0.10354767     0.43500
C749        C  0.36346360  0.99603855  0.14392944    -0.05600
C750        C  0.33697880  0.97357528  0.13088157    -0.33000
C751        C  0.30505191  0.97443410  0.15246490     0.36200
C752        C  0.29875182  0.99798773  0.18832402    -0.05900
C753        C  0.32562362  0.01950567  0.20303555    -0.32900
C754        C  0.35772618  0.01882720  0.18094103     0.36100
H755        H  0.34081504  0.95566749  0.10272512     0.16500
O756        O  0.28037744  0.95141485  0.13899199    -0.60400
H757        H  0.32132869  0.03781499  0.23057581     0.16500
O758        O  0.38225866  0.04227112  0.19343492    -0.60500
H759        H  0.39478115  0.03086931  0.21889149     0.43500
H760        H  0.27211987  0.96032405  0.10893816     0.43500
C761        C  0.49572526  0.81286939  0.19504705    -0.05600
C762        C  0.00121539  0.84638609  0.21415532    -0.33000
C763        C  0.99530957  0.87684958  0.18841282     0.36200
C764        C  0.48404366  0.87509465  0.14323858    -0.05900
C765        C  0.47614881  0.84196783  0.12530162    -0.32900
C766        C  0.48148900  0.81127721  0.15083614     0.36100
H767        H  0.00952954  0.84882325  0.24951009     0.16500
O768        O  0.00055419  0.90840273  0.20875924    -0.60400
H769        H  0.46688528  0.83955909  0.09042237     0.16500
O770        O  0.47511518  0.77985855  0.13073428    -0.60500
H771        H  0.45021934  0.77629156  0.13390346     0.43500
H772        H  0.02541493  0.91256693  0.20663885     0.43500
C773        C  0.50624892  0.68257117  0.19292076    -0.05600
C774        C  0.03320847  0.66549889  0.17268493    -0.33000
C775        C  0.02788299  0.63276276  0.15308089     0.36200
C776        C  0.49630051  0.61620187  0.15112563    -0.05900
C777        C  0.46884283  0.63432692  0.17038044    -0.32900
C778        C  0.47360856  0.66690097  0.19164462     0.36100
H779        H  0.05872566  0.67616096  0.17203765     0.16500
O780        O  0.05481116  0.61531961  0.13412376    -0.60400
H781        H  0.44342921  0.62355637  0.16804351     0.16500
O782        O  0.44633342  0.68242175  0.21241752    -0.60500
H783        H  0.43222856  0.69145179  0.18681072     0.43500
H784        H  0.07013057  0.60985482  0.16015659     0.43500
C785        C  0.14886433  0.84094852  0.01672199    -0.05600
C786        C  0.15430202  0.86898969  0.98641372    -0.33000
C787        C  0.12946215  0.89433355  0.98090976     0.36200
C788        C  0.09804821  0.89054644  0.00388338    -0.05900
C789        C  0.09267543  0.86253174  0.03415752    -0.32900
C790        C  0.11810586  0.83812016  0.04132730     0.36100
H791        H  0.17790356  0.87127306  0.96716656     0.16500
O792        O  0.13568426  0.92206670  0.95208256    -0.60400
H793        H  0.06904669  0.86011168  0.05332797     0.16500
O794        O  0.11332634  0.81227124  0.07358548    -0.60500
H795        H  0.09617273  0.79635784  0.06026911     0.43500
H796        H  0.15035279  0.93800542  0.96997647     0.43500
C797        C  0.37279419  0.88821744  0.99893458    -0.05600
C798        C  0.34320364  0.89163958  0.97273380    -0.33000
C799        C  0.31791238  0.86641990  0.97568005     0.36200
C800        C  0.32193308  0.83819693  0.00613637    -0.05900
C801        C  0.35149361  0.83486353  0.03226248    -0.32900
C802        C  0.37698659  0.85965571  0.02873135     0.36100
H803        H  0.33989432  0.91366370  0.94975735     0.16500
O804        O  0.28921236  0.86976078  0.94940401    -0.60400
H805        H  0.35451553  0.81319823  0.05590916     0.16500
O806        O  0.40542960  0.85629273  0.05549282    -0.60500
H807        H  0.40056120  0.86974468  0.08374687     0.43500
H808        H  0.29351102  0.85558691  0.92163271     0.43500
C809        C  0.32096751  0.66129860  0.02426073    -0.05600
C810        C  0.31823802  0.63621140  0.99004617    -0.33000
C811        C  0.34406033  0.61226250  0.98373816     0.36200
C812        C  0.37325416  0.61360956  0.01133584    -0.05900
C813        C  0.37616026  0.63894239  0.04551533    -0.32900
C814        C  0.35005876  0.66283275  0.05211718     0.36100
H815        H  0.29624858  0.63560835  0.96772316     0.16500
O816        O  0.34115769  0.58841576  0.94931467    -0.60400
H817        H  0.39834250  0.63982959  0.06747376     0.16500
O818        O  0.35282975  0.68726915  0.08603843    -0.60500
H819        H  0.36782594  0.70565195  0.07294361     0.43500
H820        H  0.32675392  0.56957337  0.96248746     0.43500
C821        C  0.09458964  0.61510290  0.01325432    -0.05600
C822        C  0.08906203  0.64334690  0.04238519    -0.33000
C823        C  0.11526844  0.66676791  0.05119746     0.36200
C824        C  0.14680526  0.66283228  0.02876678    -0.05900
C825        C  0.15184253  0.63530947  0.99836128    -0.32900
C826        C  0.12622037  0.61106690  0.99124495     0.36100
H827        H  0.06463610  0.64692834  0.05894875     0.16500
O828        O  0.11016933  0.69313906  0.08200229    -0.60400
H829        H  0.17565283  0.63281881  0.97975687     0.16500
O830        O  0.13179490  0.58436588  0.96120842    -0.60500
H831        H  0.14548699  0.56727618  0.97872161     0.43500
H832        H  0.09395678  0.70920867  0.06694922     0.43500
C833        C  0.30232860  0.00359273  0.80249303    -0.05600
C834        C  0.32918468  0.98170700  0.78910097    -0.33000
C835        C  0.36106556  0.98313639  0.81132144     0.36200
C836        C  0.36729330  0.50621034  0.84724167    -0.05900
C837        C  0.34032218  0.52784808  0.86000543    -0.32900
C838        C  0.30890208  0.52680565  0.83761904     0.36100
H839        H  0.32499808  0.96243754  0.76272869     0.16500
O840        O  0.38568153  0.95965504  0.79981914    -0.60400
H841        H  0.34339998  0.54518673  0.88858870     0.16500
O842        O  0.28390123  0.54943783  0.85089173    -0.60500
H843        H  0.27699974  0.54200105  0.88239740     0.43500
H844        H  0.39886720  0.97092397  0.77457506     0.43500
C845        C  0.17078642  0.99804931  0.80671234    -0.05600
C846        C  0.16964892  0.01032234  0.85199178    -0.33000
C847        C  0.13912441  0.01287024  0.87631812     0.36200
C848        C  0.10853119  0.49968683  0.85891748    -0.05900
C849        C  0.10868147  0.49526772  0.81086704    -0.32900
C850        C  0.13957813  0.49431935  0.78552915     0.36100
H851        H  0.19224438  0.01898950  0.86937425     0.16500
O852        O  0.14071167  0.02469805  0.92066144    -0.60400
H853        H  0.08484593  0.49250867  0.79274594     0.16500
O854        O  0.13818515  0.48995211  0.73873037    -0.60500
H855        H  0.13363605  0.51336828  0.72585305     0.43500
H856        H  0.14850907  0.00464375  0.93939663     0.43500
C857        C  0.48889607  0.62565776  0.85416710    -0.05600
C858        C  0.50162082  0.62319632  0.80896989    -0.33000
C859        C  0.50749222  0.65308220  0.78158049     0.36200
C860        C  0.50110223  0.68678131  0.79903280    -0.05900
C861        C  0.98847207  0.69026568  0.84534346    -0.32900
C862        C  0.98333596  0.66044878  0.87288601     0.36100
H863        H  0.50798650  0.59803232  0.79508264     0.16500
O864        O  0.51975867  0.64888759  0.73765579    -0.60400
H865        H  0.98484712  0.71563741  0.86037947     0.16500
O866        O  0.97299193  0.66513783  0.91759991    -0.60500
H867        H  0.99401643  0.67075083  0.93480541     0.43500
H868        H  0.49989557  0.65235837  0.71726054     0.43500
C869        C  0.48843122  0.87786875  0.85075429    -0.05600
C870        C  0.00096486  0.88213860  0.80376009    -0.33000
C871        C  0.00720683  0.85178251  0.77811871     0.36200
C872        C  0.49975465  0.81664903  0.79739913    -0.05900
C873        C  0.48698073  0.81413714  0.84231534    -0.32900
C874        C  0.48120794  0.84399218  0.86877466     0.36100
H875        H  0.00931852  0.90699320  0.79004243     0.16500
O876        O  0.02078790  0.85511699  0.73461779    -0.60400
H877        H  0.48267001  0.78878775  0.85774785     0.16500
O878        O  0.46934095  0.83935536  0.91295469    -0.60500
H879        H  0.44458604  0.84390116  0.91133935     0.43500
H880        H  0.04391462  0.86494183  0.73877153     0.43500
C881        C  0.44914494  0.74839931  0.68809741    -0.05600
C882        C  0.42033134  0.76557170  0.70594723    -0.33000
C883        C  0.38840730  0.76389158  0.68362323     0.36200
C884        C  0.38473365  0.74480054  0.64265262    -0.05900
C885        C  0.41312178  0.72621895  0.62652762    -0.32900
C886        C  0.44476870  0.72786487  0.64850472     0.36100
H887        H  0.42276365  0.78133470  0.73648567     0.16500
O888        O  0.36173383  0.78278755  0.70048145    -0.60400
H889        H  0.41100761  0.71058469  0.59578189     0.16500
O890        O  0.47099688  0.70820284  0.63173378    -0.60500
H891        H  0.47761172  0.71918839  0.60195727     0.43500
H892        H  0.35216515  0.76857706  0.72610785     0.43500
C893        C  0.14488413  0.74626897  0.64704737    -0.05600
C894        C  0.11739755  0.72463554  0.63562257    -0.33000
C895        C  0.08619825  0.72636503  0.65914581     0.36200
C896        C  0.08115153  0.75084329  0.69456459    -0.05900
C897        C  0.10982011  0.77085592  0.70802175    -0.32900
C898        C  0.14124980  0.76868293  0.68465034     0.36100
H899        H  0.11992561  0.70649151  0.60748162     0.16500
O900        O  0.06080994  0.70356010  0.64751499    -0.60400
H901        H  0.10868710  0.78807346  0.73706979     0.16500
O902        O  0.16756847  0.78999612  0.69728653    -0.60500
H903        H  0.17959870  0.77717077  0.72200694     0.43500
H904        H  0.05340608  0.71070536  0.61624085     0.43500
C905        C  0.25415773  0.62597233  0.64547645    -0.05600
C906        C  0.28168363  0.60883298  0.66634471    -0.33000
C907        C  0.27721665  0.57629528  0.68882225     0.36200
C908        C  0.24475772  0.56023414  0.69075324    -0.05900
C909        C  0.21766485  0.57737937  0.66873864    -0.32900
C910        C  0.22216298  0.60949824  0.64636675     0.36100
H911        H  0.30684159  0.62032308  0.66440158     0.16500
O912        O  0.30449853  0.56118875  0.71004603    -0.60400
H913        H  0.19253955  0.56576428  0.66876695     0.16500
O914        O  0.19488583  0.62468114  0.62508060    -0.60500
H915        H  0.19482344  0.61524919  0.59338101     0.43500
H916        H  0.31746154  0.54984382  0.68497335     0.43500
C917        C  0.24871777  0.93036605  0.70056979    -0.05600
C918        C  0.26123829  0.93404792  0.65567352    -0.33000
C919        C  0.26642665  0.90502796  0.62760316     0.36200
C920        C  0.25965660  0.87086241  0.64434234    -0.05900
C921        C  0.24899962  0.86710634  0.69044322    -0.32900
C922        C  0.24367372  0.89633998  0.71843191     0.36100
H923        H  0.26567970  0.95973666  0.64137384     0.16500
O924        O  0.27816167  0.91062822  0.58356116    -0.60400
H925        H  0.24389148  0.84150332  0.70460335     0.16500
O926        O  0.23330464  0.89125854  0.76318829    -0.60500
H927        H  0.25455431  0.89019287  0.78135311     0.43500
H928        H  0.25807988  0.91842646  0.56579902     0.43500
C929        C  0.37286406  0.63340645  0.48441166    -0.05600
C930        C  0.40399963  0.63634440  0.50721056    -0.33000
C931        C  0.42989039  0.61256841  0.49893702     0.36200
C932        C  0.42475721  0.58567084  0.46703741    -0.05900
C933        C  0.39367786  0.58299746  0.44395574    -0.32900
C934        C  0.36773191  0.60654225  0.45260800     0.36100
H935        H  0.40817906  0.65698869  0.53172653     0.16500
O936        O  0.45959751  0.61494571  0.52334519    -0.60400
H937        H  0.38954377  0.56243895  0.41931377     0.16500
O938        O  0.33776849  0.60352374  0.42905157    -0.60500
H939        H  0.33979891  0.61995116  0.40269888     0.43500
H940        H  0.47080313  0.63666309  0.51247911     0.43500
C941        C  0.09667677  0.58701996  0.48009347    -0.05600
C942        C  0.12605067  0.58566988  0.45288510    -0.33000
C943        C  0.15163947  0.61029372  0.45817360     0.36200
C944        C  0.14785297  0.63670620  0.49095395    -0.05900
C945        C  0.11818685  0.63833137  0.51788299    -0.32900
C946        C  0.09264549  0.61337894  0.51282054     0.36100
H947        H  0.12901761  0.56549080  0.42738260     0.16500
O948        O  0.17952618  0.60936864  0.42965476    -0.60400
H949        H  0.11507817  0.65860682  0.54319039     0.16500
O950        O  0.06443493  0.61413094  0.54081244    -0.60500
H951        H  0.04943215  0.63202379  0.52716256     0.43500
H952        H  0.19487355  0.59204586  0.44384262     0.43500
C953        C  0.10196612  0.91092940  0.46235615    -0.05600
C954        C  0.09866451  0.88786216  0.49966896    -0.33000
C955        C  0.12411213  0.86394472  0.50899642     0.36200
C956        C  0.15340062  0.86332769  0.48109648    -0.05900
C957        C  0.15703119  0.88675266  0.44418642    -0.32900
C958        C  0.13134824  0.91050131  0.43457338     0.36100
H959        H  0.07632895  0.88859764  0.52165142     0.16500
O960        O  0.12016271  0.84131918  0.54540867    -0.60400
H961        H  0.17936431  0.88601333  0.42216257     0.16500
O962        O  0.13460208  0.93253067  0.39740447    -0.60500
H963        H  0.15040176  0.95108346  0.40745945     0.43500
H964        H  0.13570457  0.84993578  0.56961278     0.43500
C965        C  0.37661707  0.86083053  0.51473382    -0.05600
C966        C  0.39633464  0.85595151  0.55435456    -0.33000
C967        C  0.42090927  0.88037785  0.56642383     0.36200
C968        C  0.42617918  0.90965816  0.53823529    -0.05900
C969        C  0.40637172  0.91468678  0.49874597    -0.32900
C970        C  0.38146805  0.89047731  0.48700876     0.36100
H971        H  0.39218625  0.83347641  0.57641602     0.16500
O972        O  0.43906418  0.87604709  0.60626775    -0.60400
H973        H  0.41053428  0.93724886  0.47686729     0.16500
O974        O  0.36233887  0.89573361  0.44827393    -0.60500
H975        H  0.37511833  0.88440492  0.42302727     0.43500
H976        H  0.45669900  0.85862852  0.59889920     0.43500
C977        C  0.14286975  0.74734742  0.35054568    -0.05600
C978        C  0.11578266  0.72497031  0.36235660    -0.33000
C979        C  0.08471065  0.72593150  0.33879794     0.36200
C980        C  0.07914038  0.75064519  0.30333684    -0.05900
C981        C  0.10716308  0.77198262  0.29022332    -0.32900
C982        C  0.13842725  0.77069118  0.31366373     0.36100
H983        H  0.11867379  0.70655076  0.39046863     0.16500
O984        O  0.05977161  0.70265049  0.35127289    -0.60400
H985        H  0.10563440  0.78952583  0.26118567     0.16500
O986        O  0.16411565  0.79300693  0.30083520    -0.60500
H987        H  0.16243900  0.81280196  0.32235966     0.43500
H988        H  0.06468750  0.68140805  0.33341836     0.43500
C989        C  0.38301898  0.74004443  0.34840984    -0.05600
C990        C  0.38715556  0.76034376  0.30834898    -0.33000
C991        C  0.41863510  0.76149899  0.28463795     0.36200
C992        C  0.44677451  0.74235383  0.30110894    -0.05900
C993        C  0.44187399  0.72060092  0.33959983    -0.32900
C994        C  0.41054060  0.71909588  0.36279012     0.36100
H995        H  0.36661230  0.77682177  0.29682085     0.16500
O996        O  0.42232841  0.78364952  0.24773404    -0.60400
H997        H  0.46265753  0.70488592  0.35222024     0.16500
O998        O  0.40748702  0.69778250  0.40072595    -0.60500
H999        H  0.39491523  0.67704277  0.38990133     0.43500
H1000       H  0.41002003  0.77238275  0.22209076     0.43500
C1001       C  0.25985510  0.87291651  0.34858327    -0.05600
C1002       C  0.24658153  0.87083218  0.30382714    -0.33000
C1003       C  0.23986753  0.90108763  0.27769241     0.36200
C1004       C  0.24591901  0.93460888  0.29616916    -0.05900
C1005       C  0.26094154  0.93667625  0.33953434    -0.32900
C1006       C  0.26792768  0.90661839  0.36549884     0.36100
H1007       H  0.24039766  0.84574192  0.28945541     0.16500
O1008       O  0.22707304  0.89743729  0.23411533    -0.60400
H1009       H  0.26630629  0.96186629  0.35422477     0.16500
O1010       O  0.28195870  0.91085126  0.40822441    -0.60500
H1011       H  0.30682733  0.91126327  0.40271795     0.43500
H1012       H  0.24654287  0.90204945  0.21305467     0.43500
C1013       C  0.24695268  0.56229002  0.29793397    -0.05600
C1014       C  0.25242490  0.55972818  0.34519814    -0.33000
C1015       C  0.25755781  0.58945350  0.37218732     0.36200
C1016       C  0.25746172  0.62347362  0.35201244    -0.05900
C1017       C  0.25343230  0.62573927  0.30391023    -0.32900
C1018       C  0.24792640  0.59567299  0.27712750     0.36100
H1019       H  0.25121903  0.53448636  0.36188714     0.16500
O1020       O  0.26067431  0.58475863  0.41893806    -0.60400
H1021       H  0.25357294  0.65090521  0.28704239     0.16500
O1022       O  0.24373698  0.59911142  0.23041242    -0.60500
H1023       H  0.22072632  0.60903098  0.22636240     0.43500
H1024       H  0.28099032  0.57002612  0.42343007     0.43500
O1025       O  0.76072954  0.18507145  0.36429218    -0.80200
O1026       O  0.76187741  0.18836922  0.63057351    -0.81800
O1027       O  0.81710010  0.14873316  0.48546867    -0.78800
O1028       O  0.70864292  0.14843443  0.50375002    -0.77200
O1029       O  0.66824185  0.19067219  0.50793822    -0.79000
O1030       O  0.85841013  0.19026995  0.48939259    -0.79900
O1031       O  0.76415525  0.14927736  0.57152674    -0.81300
O1032       O  0.76050593  0.14738760  0.42535899    -0.81500
Eu1033     Eu  0.76291705  0.17834240  0.49727753     2.39200
O1034       O  0.73027846  0.21354672  0.54561058    -0.89100
O1035       O  0.79555258  0.21230433  0.44710083    -0.92700
C1036       C  0.76025863  0.15374070  0.38191606     1.02000
C1037       C  0.76270035  0.15686475  0.61456500     1.01900
C1038       C  0.84827822  0.15890301  0.48359470     1.01800
C1039       C  0.67796693  0.15890283  0.50911246     0.99700
H1040       H  0.81197320  0.19723646  0.56384070     0.29400
O1041       O  0.79723695  0.21200906  0.54589282    -1.01400
H1042       H  0.71335064  0.19651639  0.43145999     0.29400
O1043       O  0.72818785  0.21165723  0.44845434    -1.04000
O1044       O  0.76206334  0.30911661  0.62840195    -0.81200
O1045       O  0.75938028  0.30805242  0.36416029    -0.80700
O1046       O  0.86044881  0.24679770  0.56728930    -0.79200
O1047       O  0.66614775  0.24767408  0.57082061    -0.82500
O1048       O  0.66510035  0.24353333  0.42448413    -0.80400
O1049       O  0.85875052  0.24202174  0.42069275    -0.79000
O1050       O  0.81954617  0.34250218  0.48905869    -0.80600
O1051       O  0.70952776  0.34430006  0.49088117    -0.82500
O1052       O  0.85995352  0.30014566  0.48986450    -0.79200
O1053       O  0.66789091  0.30287250  0.49303472    -0.81900
O1054       O  0.82326587  0.25056291  0.62810823    -0.77600
O1055       O  0.82078241  0.24399176  0.36109433    -0.77700
O1056       O  0.70238179  0.24554753  0.36355591    -0.77300
O1057       O  0.70465662  0.24913519  0.62989825    -0.80800
O1058       O  0.76327417  0.34694924  0.56758104    -0.80200
O1059       O  0.76099065  0.34578948  0.42438584    -0.78500
Eu1060     Eu  0.76383408  0.24833822  0.59496767     2.39800
Eu1061     Eu  0.76171570  0.24627777  0.39695603     2.39600
Eu1062     Eu  0.82990942  0.24578778  0.49476100     2.38400
Eu1063     Eu  0.69575400  0.24679719  0.49734123     2.39900
Eu1064     Eu  0.76394423  0.31480014  0.49574707     2.39800
O1065       O  0.72945599  0.28083004  0.44803654    -0.93000
O1066       O  0.79844965  0.28168360  0.54416159    -0.91900
C1067       C  0.76199611  0.34050113  0.61109287     1.02200
C1068       C  0.75940587  0.33938087  0.38130856     1.00900
C1069       C  0.85383021  0.24890632  0.61065978     1.00300
C1070       C  0.67375540  0.24837103  0.61383510     1.02300
C1071       C  0.67177519  0.24384435  0.38093951     1.01200
C1072       C  0.85153786  0.24168866  0.37751070     1.00100
C1073       C  0.85042464  0.33181234  0.48716367     1.00200
C1074       C  0.67825464  0.33449802  0.49006935     1.02800
H1075       H  0.81092714  0.29486350  0.42656897     0.30100
O1076       O  0.79652994  0.28039017  0.44583844    -1.05100
H1077       H  0.71492604  0.29708708  0.56279035     0.32200
O1078       O  0.72932121  0.28191116  0.54514798    -1.07700
N1079       N  0.96086412  0.49578599  0.45175386    -0.36700
N1080       N  0.51563584  0.44596220  0.45251807    -0.57300
N1081       N  0.56525911  0.49949628  0.45521292    -0.36700
N1082       N  0.51225261  0.05188369  0.55890440    -0.57300
C1083       C  0.94314787  0.46721417  0.46428152     0.26900
C1084       C  0.94300002  0.02618043  0.45333996     0.26900
C1085       C  0.58349259  0.47180428  0.46899970     0.26900
C1086       C  0.58259326  0.02664261  0.56317540     0.26900
C1087       C  0.98765763  0.42416856  0.44792903     0.35500
C1088       C  0.54347243  0.42697275  0.44360287     0.35500
C1089       C  0.98552005  0.06963084  0.42855404     0.35500
C1090       C  0.53940173  0.07118508  0.54610996     0.35500
C1091       C  0.91208441  0.47665071  0.48319439    -0.22000
C1092       C  0.91301433  0.01660582  0.47551210    -0.22000
C1093       C  0.61119735  0.48262897  0.49462145    -0.22000
C1094       C  0.61431583  0.01669758  0.57901344    -0.22000
C1095       C  0.99912526  0.39196279  0.43382142    -0.23100
C1096       C  0.53429691  0.39423758  0.42842253    -0.23100
C1097       C  0.99581605  0.10160975  0.41117207    -0.23100
C1098       C  0.52909935  0.10274804  0.52789744    -0.23100
C1099       C  0.95376256  0.43294437  0.45661576    -0.18400
C1100       C  0.95210795  0.06038371  0.44079474    -0.18400
C1101       C  0.57330723  0.06075634  0.55191310    -0.18400
C1102       C  0.57623127  0.43730192  0.45693794    -0.18400
H1103       H  0.89218007  0.45970265  0.49626471     0.14500
H1104       H  0.89275529  0.03335372  0.48713070     0.14500
H1105       H  0.63054320  0.46661183  0.51029363     0.14500
H1106       H  0.63514822  0.03346901  0.58889666     0.14500
H1107       H  0.98390040  0.36997316  0.42326166     0.12800
H1108       H  0.55097341  0.37288371  0.42018863     0.12800
H1109       H  0.97978501  0.12285577  0.40026955     0.12800
H1110       H  0.54502499  0.12361996  0.51480092     0.12800
H1111       H  0.98335693  0.49629637  0.43263460     0.26000
H1112       H  0.54547134  0.49943562  0.43147370     0.26000
O1113       O  0.98550608  0.44142655  0.86767353    -0.80200
O1114       O  0.98390552  0.43711171  0.13165635    -0.81200
O1115       O  0.53774537  0.40063174  0.00227251    -0.78800
O1116       O  0.92985501  0.40308115  0.00952046    -0.77200
O1117       O  0.88891449  0.44458973  0.00390299    -0.79000
O1118       O  0.57897229  0.44249750  0.99906464    -0.79900
O1119       O  0.98478505  0.39974930  0.07093233    -0.81300
O1120       O  0.98433694  0.40180489  0.92678243    -0.81500
Eu1121     Eu  0.98443889  0.43196969  0.99928972     2.39200
O1122       O  0.95007902  0.46549509  0.04698897    -0.89100
O1123       O  0.51796719  0.46410794  0.94934618    -0.92700
C1124       C  0.98469807  0.40964023  0.88371685     1.02000
C1125       C  0.98487355  0.40599894  0.11433616     1.01900
C1126       C  0.56896092  0.41085488  0.00240546     1.01800
C1127       C  0.89883015  0.41330725  0.01053420     0.99700
H1128       H  0.53060809  0.44733582  0.06509901     0.29400
O1129       O  0.51661557  0.46271359  0.04690574    -1.01400
H1130       H  0.93626207  0.45159683  0.93179188     0.29400
O1131       O  0.95073246  0.46626166  0.95013323    -1.04000
O1132       O  0.98751547  0.05767869  0.13245320    -0.81200
O1133       O  0.98540635  0.06571026  0.86732905    -0.80700
O1134       O  0.57993344  0.49366834  0.07208381    -0.79200
O1135       O  0.88631066  0.49381353  0.07189349    -0.82500
O1136       O  0.88872087  0.00459300  0.92006678    -0.80400
O1137       O  0.58115653  0.00261167  0.92490363    -0.79000
O1138       O  0.53813792  0.09974959  0.00424123    -0.80600
O1139       O  0.92640589  0.09775737  0.00580076    -0.82500
O1140       O  0.57925850  0.05828330  0.00130290    -0.79200
O1141       O  0.88585119  0.05548358  0.00049394    -0.81900
O1142       O  0.54177696  0.49342227  0.13205224    -0.77600
O1143       O  0.54545449  0.00318336  0.86340910    -0.77700
O1144       O  0.92776452  0.00435765  0.86115978    -0.77300
O1145       O  0.92351086  0.49515446  0.13247286    -0.80800
O1146       O  0.98451130  0.09913306  0.07535747    -0.80200
O1147       O  0.98251805  0.10339935  0.92788130    -0.78500
Eu1148     Eu  0.98249011  0.49832156  0.09927381     2.39800
Eu1149     Eu  0.98553047  0.00371478  0.89862340     2.39600
Eu1150     Eu  0.55078088  0.49799873  0.99906153     2.38400
Eu1151     Eu  0.91680317  0.50029665  0.99893588     2.39900
Eu1152     Eu  0.98232464  0.07079794  0.00035157     2.39800
O1153       O  0.95051931  0.03699988  0.94879433    -0.93000
O1154       O  0.51725449  0.03449697  0.04685938    -0.91900
C1155       C  0.98752493  0.08970591  0.11780510     1.02200
C1156       C  0.98390656  0.09699080  0.88440135     1.00900
C1157       C  0.57253966  0.49239646  0.11525761     1.00300
C1158       C  0.89314353  0.49296791  0.11523156     1.02300
C1159       C  0.89672360  0.00527098  0.87692328     1.01200
C1160       C  0.57579954  0.00323690  0.88141322     1.00100
C1161       C  0.56931821  0.08993319  0.00461015     1.00200
C1162       C  0.89529839  0.08722376  0.00551704     1.02800
H1163       H  0.53294826  0.05233917  0.93231150     0.30100
O1164       O  0.51819799  0.03703108  0.94978847    -1.05100
H1165       H  0.93400579  0.04781458  0.06625104     0.32200
O1166       O  0.94873068  0.03406726  0.04701764    -1.07700
N1167       N  0.78548261  0.25242822  0.05469616    -0.36700
N1168       N  0.73386786  0.30467322  0.05504288    -0.57300
N1169       N  0.68238502  0.25233779  0.04987045    -0.36700
N1170       N  0.73343340  0.20012444  0.05127866    -0.57300
C1171       C  0.80289063  0.28120132  0.04191117     0.26900
C1172       C  0.80253123  0.22504139  0.03753143     0.26900
C1173       C  0.66670129  0.28049689  0.03256281     0.26900
C1174       C  0.66603394  0.22451864  0.03287416     0.26900
C1175       C  0.76076809  0.32435717  0.06628617     0.35500
C1176       C  0.70621085  0.32444683  0.06121914     0.35500
C1177       C  0.76069202  0.17994800  0.05855135     0.35500
C1178       C  0.70583458  0.18008153  0.05895275     0.35500
C1179       C  0.83133634  0.27207183  0.01634034    -0.22000
C1180       C  0.83100394  0.23653672  0.01338459    -0.22000
C1181       C  0.64040192  0.27057217  0.00383223    -0.22000
C1182       C  0.64003428  0.23501202  0.00393716    -0.22000
C1183       C  0.75016388  0.35668228  0.08125890    -0.23100
C1184       C  0.71527376  0.35678410  0.07778974    -0.23100
C1185       C  0.75049065  0.14698732  0.07246530    -0.23100
C1186       C  0.71549198  0.14711318  0.07291328    -0.23100
C1187       C  0.79413313  0.31530596  0.05428117    -0.18400
C1188       C  0.79383507  0.18997460  0.04563631    -0.18400
C1189       C  0.67305253  0.19007118  0.04530533    -0.18400
C1190       C  0.67408527  0.31470899  0.04522260    -0.18400
H1191       H  0.85027310  0.28918018  0.00113447     0.14500
H1192       H  0.84970673  0.22096203  0.99567138     0.14500
H1193       H  0.62307030  0.28721756  0.98521026     0.14500
H1194       H  0.62245021  0.21875461  0.98522269     0.14500
H1195       H  0.76600320  0.37847915  0.09082570     0.12800
H1196       H  0.69870558  0.37853594  0.08447306     0.12800
H1197       H  0.76650565  0.12481792  0.07938208     0.12800
H1198       H  0.69914113  0.12502181  0.08000534     0.12800
H1199       H  0.76508009  0.25142902  0.07775179     0.26000
H1200       H  0.70048999  0.25206903  0.07600432     0.26000
C1201       C  0.54251569  0.24679301  0.27840876     0.86400
C1202       C  0.53873419  0.21527460  0.24755730    -0.53900
C1203       C  0.01366492  0.21624922  0.22243695     0.09300
C1204       C  0.98949158  0.24777812  0.22974850     0.20200
C1205       C  0.53703146  0.27843486  0.24650455    -0.54600
C1206       C  0.01097539  0.28121188  0.22263860     0.09400
C1207       C  0.01089377  0.24890912  0.30830546    -0.54100
C1208       C  0.98190426  0.24724240  0.28193439     0.10000
H1209       H  0.55764767  0.19484450  0.24733443     0.14500
H1210       H  0.96650825  0.24782376  0.20811436     0.00200
H1211       H  0.55410280  0.30060040  0.24519494     0.14800
H1212       H  0.00989949  0.24947386  0.34565328     0.14600
C1213       C  0.70136635  0.49623031  0.21569639     0.86400
C1214       C  0.70466277  0.46569527  0.24909394    -0.53900
C1215       C  0.73431742  0.46469257  0.27292713     0.09300
C1216       C  0.75785531  0.49645110  0.26329620     0.20200
C1217       C  0.70746866  0.03142117  0.24610094    -0.54600
C1218       C  0.73719031  0.03069512  0.26993118     0.09400
C1219       C  0.73426831  0.49494399  0.18589602    -0.54100
C1220       C  0.76387106  0.49457852  0.21099775     0.10000
H1221       H  0.68573716  0.44510782  0.25145386     0.14500
H1222       H  0.78170882  0.49628987  0.28358270     0.00200
H1223       H  0.69082972  0.05373469  0.24746730     0.14800
H1224       H  0.73435801  0.49487356  0.14854660     0.14600
C1225       C  0.54532732  0.25264488  0.71886236     0.86400
C1226       C  0.53941826  0.28418454  0.74980543    -0.53900
C1227       C  0.00777285  0.28739581  0.77144054     0.09300
C1228       C  0.98594611  0.25429375  0.76285011     0.20200
C1229       C  0.54085000  0.22097730  0.75054274    -0.54600
C1230       C  0.00866546  0.22224926  0.77346115     0.09400
C1231       C  0.01316122  0.25436562  0.68724908    -0.54100
C1232       C  0.98233135  0.25362287  0.71003757     0.10000
H1233       H  0.55645727  0.30612962  0.75195470     0.14500
H1234       H  0.96118449  0.25388085  0.78137065     0.00200
H1235       H  0.55953184  0.20036469  0.75271776     0.14800
H1236       H  0.01518496  0.25477839  0.64995751     0.14600
C1237       C  0.70532588  0.49876943  0.77755435     0.86400
C1238       C  0.70826126  0.02722594  0.74278700    -0.53900
C1239       C  0.73785422  0.02907928  0.71808149     0.09300
C1240       C  0.76172380  0.49784883  0.72857625     0.20200
C1241       C  0.71090534  0.46486657  0.75125902    -0.54600
C1242       C  0.74017819  0.46370314  0.72567515     0.09400
C1243       C  0.73857730  0.50256877  0.80611546    -0.54100
C1244       C  0.76815190  0.50224241  0.78063140     0.10000
H1245       H  0.68898860  0.04727642  0.74131055     0.14500
H1246       H  0.78539374  0.49764611  0.70756965     0.00200
H1247       H  0.69300645  0.44335584  0.75286244     0.14800
H1248       H  0.73933283  0.50380863  0.84333217     0.14600
C1249       C  0.60271824  0.48955567  0.14579344    -0.05600
C1250       C  0.63074932  0.47017108  0.13035216    -0.33000
C1251       C  0.66235656  0.47183622  0.15243699     0.36200
C1252       C  0.66713668  0.49424327  0.19023790    -0.05900
C1253       C  0.63868835  0.01733190  0.20594356    -0.32900
C1254       C  0.60704026  0.01574385  0.18362634     0.36100
H1255       H  0.62828510  0.45384851  0.10027866     0.16500
O1256       O  0.68797801  0.45048461  0.13770757    -0.60400
H1257       H  0.63996658  0.03187916  0.23753598     0.16500
O1258       O  0.58001981  0.03383691  0.20104655    -0.60500
H1259       H  0.58278814  0.05773339  0.18873468     0.43500
H1260       H  0.69405298  0.45869438  0.10622527     0.43500
C1261       C  0.86301540  0.48971556  0.14605394    -0.05600
C1262       C  0.83759982  0.46529171  0.13533732    -0.33000
C1263       C  0.80573909  0.46591999  0.15730163     0.36200
C1264       C  0.79846852  0.49167897  0.19001943    -0.05900
C1265       C  0.82454506  0.51474461  0.20284732    -0.32900
C1266       C  0.85664725  0.51383176  0.18120939     0.36100
H1267       H  0.84221643  0.44610833  0.10892595     0.16500
O1268       O  0.78217430  0.44068719  0.14753711    -0.60400
H1269       H  0.81957878  0.53442211  0.22844261     0.16500
O1270       O  0.88056487  0.53840349  0.19202018    -0.60500
H1271       H  0.89582284  0.52686131  0.21442060     0.43500
H1272       H  0.77253876  0.44729621  0.11724695     0.43500
C1273       C  0.99995613  0.31251656  0.19621257    -0.05600
C1274       C  0.49863551  0.34268516  0.21589002    -0.33000
C1275       C  0.49209945  0.37319501  0.19044124     0.36200
C1276       C  0.98748459  0.37428298  0.14454326    -0.05900
C1277       C  0.98709983  0.34112310  0.12369389    -0.32900
C1278       C  0.99314997  0.31066993  0.14901719     0.36100
H1279       H  0.50700321  0.34502331  0.25123156     0.16500
O1280       O  0.49608590  0.40466761  0.21143941    -0.60400
H1281       H  0.98306590  0.33854899  0.08699766     0.16500
O1282       O  0.99492898  0.27952757  0.12658255    -0.60500
H1283       H  0.97100197  0.27192525  0.12279229     0.43500
H1284       H  0.52048716  0.41060714  0.20755161     0.43500
C1285       C  0.00572116  0.18335061  0.19574181    -0.05600
C1286       C  0.52892941  0.16484194  0.17337944    -0.33000
C1287       C  0.52468237  0.13261763  0.15239040     0.36200
C1288       C  0.99320765  0.11863917  0.15053233    -0.05900
C1289       C  0.96628984  0.14049637  0.16289371    -0.32900
C1290       C  0.97211456  0.17210846  0.18593206     0.36100
H1291       H  0.55411456  0.17631188  0.17314740     0.16500
O1292       O  0.55216037  0.11655798  0.13265994    -0.60400
H1293       H  0.94050784  0.13326096  0.15400708     0.16500
O1294       O  0.94451230  0.19101949  0.19959511    -0.60500
H1295       H  0.93545195  0.20162156  0.17094300     0.43500
H1296       H  0.56870833  0.11295486  0.15786804     0.43500
C1297       C  0.64808540  0.34106500  0.03655583    -0.05600
C1298       C  0.65290903  0.36482801  0.00036501    -0.33000
C1299       C  0.62673865  0.38711891  0.98762845     0.36200
C1300       C  0.59526139  0.38511808  0.01076727    -0.05900
C1301       C  0.59044801  0.36115613  0.04680941    -0.32900
C1302       C  0.61675766  0.33923958  0.05991880     0.36100
H1303       H  0.67673356  0.36553710  0.98144719     0.16500
O1304       O  0.63161912  0.40989757  0.95157888    -0.60400
H1305       H  0.56661338  0.36015926  0.06571498     0.16500
O1306       O  0.61195846  0.31639133  0.09591060    -0.60500
H1307       H  0.60011769  0.29609340  0.08250447     0.43500
H1308       H  0.64579495  0.42893635  0.96410144     0.43500
C1309       C  0.87247179  0.38803618  0.02207038    -0.05600
C1310       C  0.84076178  0.39101629  0.00084893    -0.33000
C1311       C  0.81456018  0.36825120  0.01234104     0.36200
C1312       C  0.81961961  0.34285207  0.04668627    -0.05900
C1313       C  0.85092212  0.34075850  0.06934723    -0.32900
C1314       C  0.87748127  0.36302134  0.05698335     0.36100
H1315       H  0.83655852  0.41054815  0.97443816     0.16500
O1316       O  0.78448779  0.37032063  0.98880998    -0.60400
H1317       H  0.85501145  0.32102588  0.09552162     0.16500
O1318       O  0.90805638  0.36015127  0.07919637    -0.60500
H1319       H  0.90758782  0.37807656  0.10352318     0.43500
H1320       H  0.78637427  0.35301725  0.96383388     0.43500
C1321       C  0.81953438  0.16296278  0.03616484    -0.05600
C1322       C  0.81269719  0.13718576  0.00349751    -0.33000
C1323       C  0.83696942  0.11200540  0.99319221     0.36200
C1324       C  0.86900257  0.11325811  0.01450073    -0.05900
C1325       C  0.87582759  0.13915832  0.04691499    -0.32900
C1326       C  0.85131937  0.16376100  0.05806152     0.36100
H1327       H  0.78849284  0.13669506  0.98586096     0.16500
O1328       O  0.82963693  0.08718440  0.96108267    -0.60400
H1329       H  0.90007469  0.13994066  0.06444777     0.16500
O1330       O  0.85822116  0.18801362  0.09118517    -0.60500
H1331       H  0.87623396  0.20321795  0.07785404     0.43500
H1332       H  0.81612259  0.06929515  0.97787835     0.43500
C1333       C  0.59538966  0.11658257  0.01208643    -0.05600
C1334       C  0.58820576  0.14397119  0.04207551    -0.33000
C1335       C  0.61372623  0.16707276  0.05507653     0.36200
C1336       C  0.64666537  0.16364699  0.03649345    -0.05900
C1337       C  0.65337342  0.13739886  0.00467249    -0.32900
C1338       C  0.62813727  0.11362923  0.99291010     0.36100
H1339       H  0.56294205  0.14702907  0.05637117     0.16500
O1340       O  0.60652578  0.19264912  0.08630668    -0.60400
H1341       H  0.67819400  0.13555930  0.98852907     0.16500
O1342       O  0.63534363  0.08841939  0.96135966    -0.60500
H1343       H  0.64930589  0.07123469  0.97828337     0.43500
H1344       H  0.59115308  0.20898549  0.07014226     0.43500
C1345       C  0.80285270  0.50537478  0.80203976    -0.05600
C1346       C  0.82894463  0.48181364  0.79106450    -0.33000
C1347       C  0.86041658  0.48240980  0.81447751     0.36200
C1348       C  0.86699521  0.00747185  0.84503419    -0.05900
C1349       C  0.83978013  0.02900881  0.85761230    -0.32900
C1350       C  0.80818244  0.02707518  0.83554649     0.36100
H1351       H  0.82437561  0.46189205  0.76568276     0.16500
O1352       O  0.88403537  0.45732693  0.80533167    -0.60400
H1353       H  0.84271617  0.04688788  0.88593820     0.16500
O1354       O  0.78284776  0.04936092  0.84860862    -0.60500
H1355       H  0.77560439  0.04148611  0.87978339     0.43500
H1356       H  0.90038077  0.46837283  0.78354905     0.43500
C1357       C  0.67088512  0.50044178  0.80365665    -0.05600
C1358       C  0.66910245  0.51383090  0.84838851    -0.33000
C1359       C  0.63839086  0.51537277  0.87278818     0.36200
C1360       C  0.60786557  0.00356756  0.85252889    -0.05900
C1361       C  0.60813165  0.99506130  0.80549750    -0.32900
C1362       C  0.63910367  0.99239644  0.78060150     0.36100
H1363       H  0.69133220  0.52414149  0.86511986     0.16500
O1364       O  0.63902020  0.52928961  0.91601181    -0.60400
H1365       H  0.58439119  0.98986654  0.78808398     0.16500
O1366       O  0.63784117  0.98398592  0.73482079    -0.60500
H1367       H  0.63703374  0.00649077  0.71808603     0.43500
H1368       H  0.64878985  0.51100929  0.93614304     0.43500
C1369       C  0.98511559  0.12852796  0.85310481    -0.05600
C1370       C  0.99855054  0.12634578  0.80828975    -0.33000
C1371       C  0.00441590  0.15637318  0.78130317     0.36200
C1372       C  0.99757498  0.18986753  0.79898160    -0.05900
C1373       C  0.48922039  0.19002873  0.84504525    -0.32900
C1374       C  0.48299675  0.16019820  0.87182333     0.36100
H1375       H  0.00555423  0.10134040  0.79446820     0.16500
O1376       O  0.01720200  0.15258709  0.73758458    -0.60400
H1377       H  0.48693704  0.21533798  0.86075085     0.16500
O1378       O  0.47275135  0.16466615  0.91665598    -0.60500
H1379       H  0.49371868  0.17061342  0.93378738     0.43500
H1380       H  0.99707478  0.15296951  0.71715703     0.43500
C1381       C  0.98511258  0.37907171  0.85189153    -0.05600
C1382       C  0.49655361  0.37998692  0.80468428    -0.33000
C1383       C  0.50286744  0.35017896  0.77813056     0.36200
C1384       C  0.99648869  0.31920923  0.79672353    -0.05900
C1385       C  0.98168120  0.31592224  0.84040527    -0.32900
C1386       C  0.97596019  0.34519915  0.86785373     0.36100
H1387       H  0.50217716  0.40532285  0.79004028     0.16500
O1388       O  0.51408144  0.35428489  0.73352800    -0.60400
H1389       H  0.97597239  0.29036363  0.85431609     0.16500
O1390       O  0.96247299  0.34000154  0.91106386    -0.60500
H1391       H  0.93776169  0.34420233  0.90772652     0.43500
H1392       H  0.53718945  0.36455195  0.73574187     0.43500
C1393       C  0.94860306  0.25148830  0.68632927    -0.05600
C1394       C  0.92107816  0.27211604  0.70087776    -0.33000
C1395       C  0.88932968  0.27073062  0.67835199     0.36200
C1396       C  0.88461935  0.24834404  0.64068913    -0.05900
C1397       C  0.91189843  0.22702346  0.62740138    -0.32900
C1398       C  0.94339941  0.22837272  0.64968484     0.36100
H1399       H  0.92446723  0.29008470  0.72902150     0.16500
O1400       O  0.86397003  0.29285539  0.69156005    -0.60400
H1401       H  0.90890538  0.20924670  0.59893074     0.16500
O1402       O  0.96851980  0.20586361  0.63657308    -0.60500
H1403       H  0.97669829  0.21450528  0.60618063     0.43500
H1404       H  0.85186451  0.28062464  0.71700794     0.43500
C1405       C  0.64371484  0.24775474  0.64534171    -0.05600
C1406       C  0.61704051  0.22449361  0.63602483    -0.33000
C1407       C  0.58594408  0.22568740  0.65984920     0.36200
C1408       C  0.57985374  0.25165122  0.69293077    -0.05900
C1409       C  0.60726080  0.27452198  0.70301828    -0.32900
C1410       C  0.63869545  0.27267481  0.67964485     0.36100
H1411       H  0.61999740  0.20557931  0.60912875     0.16500
O1412       O  0.56174709  0.20086701  0.65097893    -0.60400
H1413       H  0.60537273  0.29386660  0.72942071     0.16500
O1414       O  0.66347856  0.29682286  0.68857602    -0.60500
H1415       H  0.67495225  0.28832365  0.71679019     0.43500
H1416       H  0.55307906  0.20634851  0.61975105     0.43500
C1417       C  0.76102394  0.12599881  0.64598345    -0.05600
C1418       C  0.77423941  0.09416028  0.63028135    -0.33000
C1419       C  0.76764490  0.06275518  0.65349569     0.36200
C1420       C  0.74793971  0.06238569  0.69404569    -0.05900
C1421       C  0.73672144  0.09463747  0.71152312    -0.32900
C1422       C  0.74266104  0.12600539  0.68766609     0.36100
H1423       H  0.78870836  0.09328849  0.59844005     0.16500
O1424       O  0.77934192  0.03252543  0.63478399    -0.60400
H1425       H  0.72257994  0.09569059  0.74357007     0.16500
O1426       O  0.72911349  0.15612188  0.70448694    -0.60500
H1427       H  0.70609991  0.15764288  0.69084002     0.43500
H1428       H  0.76119522  0.02485591  0.61353208     0.43500
C1429       C  0.74935512  0.43193103  0.69845927    -0.05600
C1430       C  0.75850669  0.43549591  0.65207309    -0.33000
C1431       C  0.76262785  0.40634582  0.62372949     0.36200
C1432       C  0.75934335  0.37196301  0.64188452    -0.05900
C1433       C  0.75136135  0.36848667  0.68901856    -0.32900
C1434       C  0.74600511  0.39787864  0.71694069     0.36100
H1435       H  0.76067437  0.46119782  0.63688948     0.16500
O1436       O  0.76910438  0.41217175  0.57782864    -0.60400
H1437       H  0.74818681  0.34288404  0.70414355     0.16500
O1438       O  0.73676954  0.39294011  0.76216441    -0.60500
H1439       H  0.75820835  0.38773171  0.77855673     0.43500
H1440       H  0.74645864  0.41569705  0.56366242     0.43500
C1441       C  0.87444430  0.13344888  0.47232018    -0.05600
C1442       C  0.90442804  0.13285535  0.49804896    -0.33000
C1443       C  0.93062697  0.11026546  0.48648126     0.36200
C1444       C  0.92699497  0.08804196  0.44859879    -0.05900
C1445       C  0.89744696  0.08931764  0.42190851    -0.32900
C1446       C  0.87122102  0.11201334  0.43345033     0.36100
H1447       H  0.90732314  0.14964749  0.52756796     0.16500
O1448       O  0.95895635  0.10870707  0.51375679    -0.60400
H1449       H  0.89454810  0.07221165  0.39271864     0.16500
O1450       O  0.84289041  0.11349152  0.40617439    -0.60500
H1451       H  0.84685411  0.13339107  0.38490490     0.43500
H1452       H  0.97351740  0.12839844  0.50345773     0.43500
C1453       C  0.60068730  0.08562549  0.54158357    -0.05600
C1454       C  0.61929377  0.08214290  0.50049723    -0.33000
C1455       C  0.64521152  0.10566577  0.48956297     0.36200
C1456       C  0.65217670  0.13295517  0.51979273    -0.05900
C1457       C  0.63437074  0.13563984  0.56147637    -0.32900
C1458       C  0.60841717  0.11229285  0.57238540     0.36100
H1459       H  0.61344562  0.06133489  0.47687513     0.16500
O1460       O  0.66267154  0.10262644  0.44876299    -0.60400
H1461       H  0.64112102  0.15551847  0.58583227     0.16500
O1462       O  0.59136141  0.11505116  0.61353093    -0.60500
H1463       H  0.57360588  0.13276429  0.60807801     0.43500
H1464       H  0.68179169  0.08675972  0.45561090     0.43500
C1465       C  0.60244415  0.41067804  0.46467989    -0.05600
C1466       C  0.59631486  0.38425669  0.49722405    -0.33000
C1467       C  0.62104252  0.35944615  0.50641659     0.36200
C1468       C  0.65255237  0.36128373  0.48337101    -0.05900
C1469       C  0.65891505  0.38804717  0.45139249    -0.32900
C1470       C  0.63396050  0.41258409  0.44171160     0.36100
H1471       H  0.57228919  0.38300706  0.51562455     0.16500
O1472       O  0.61422645  0.33362912  0.53800940    -0.60400
H1473       H  0.68292405  0.38936467  0.43292614     0.16500
O1474       O  0.64005252  0.43767364  0.40882555    -0.60500
H1475       H  0.65579123  0.45447282  0.42336349     0.43500
H1476       H  0.62408019  0.34190229  0.56734629     0.43500
C1477       C  0.87684385  0.35736833  0.47923705    -0.05600
C1478       C  0.90526174  0.35777072  0.50795247    -0.33000
C1479       C  0.93117062  0.38180077  0.50009029     0.36200
C1480       C  0.92873680  0.40505709  0.46267132    -0.05900
C1481       C  0.90079265  0.40382260  0.43314151    -0.32900
C1482       C  0.87478698  0.38004241  0.44129361     0.36100
H1483       H  0.90695775  0.33996145  0.53694288     0.16500
O1484       O  0.95780450  0.38370302  0.53031885    -0.60400
H1485       H  0.89895090  0.42179115  0.40436015     0.16500
O1486       O  0.84765913  0.37882079  0.41186508    -0.60500
H1487       H  0.85439764  0.36241261  0.38734113     0.43500
H1488       H  0.97337727  0.36473170  0.52135025     0.43500
C1489       C  0.64109099  0.24185249  0.35052798    -0.05600
C1490       C  0.61269733  0.22255011  0.36601846    -0.33000
C1491       C  0.58154004  0.22329211  0.34265200     0.36200
C1492       C  0.57690470  0.24553855  0.30418884    -0.05900
C1493       C  0.60630275  0.26250679  0.28640069    -0.32900
C1494       C  0.63794998  0.26085140  0.30914576     0.36100
H1495       H  0.61466061  0.20651496  0.39672624     0.16500
O1496       O  0.55581012  0.20192942  0.35794002    -0.60400
H1497       H  0.60522565  0.27691344  0.25435695     0.16500
O1498       O  0.66540112  0.27831974  0.29091160    -0.60500
H1499       H  0.66202225  0.30294260  0.29937887     0.43500
H1500       H  0.55919063  0.17974259  0.34147660     0.43500
C1501       C  0.88198654  0.23866878  0.34652625    -0.05600
C1502       C  0.88701057  0.26121691  0.30874933    -0.33000
C1503       C  0.91906724  0.26378421  0.28655227     0.36200
C1504       C  0.94681206  0.24370335  0.30213478    -0.05900
C1505       C  0.94115393  0.21991566  0.33818039    -0.32900
C1506       C  0.90934440  0.21713796  0.35997650     0.36100
H1507       H  0.86675621  0.27842917  0.29822907     0.16500
O1508       O  0.92373761  0.28816208  0.25240872    -0.60400
H1509       H  0.96172945  0.20358691  0.35005609     0.16500
O1510       O  0.90566268  0.19412732  0.39597943    -0.60500
H1511       H  0.90090608  0.17144625  0.38142188     0.43500
H1512       H  0.91267084  0.27832400  0.22478239     0.43500
C1513       C  0.75674884  0.37130778  0.35139960    -0.05600
C1514       C  0.74652284  0.36900328  0.30531339    -0.33000
C1515       C  0.74053424  0.39911647  0.27886120     0.36200
C1516       C  0.74448669  0.43253471  0.29831992    -0.05900
C1517       C  0.75618555  0.43502149  0.34335785    -0.32900
C1518       C  0.76215870  0.40515283  0.36997067     0.36100
H1519       H  0.74220839  0.34383212  0.29000377     0.16500
O1520       O  0.73030980  0.39554013  0.23404490    -0.60400
H1521       H  0.75939319  0.46033819  0.35880576     0.16500
O1522       O  0.77167812  0.40966105  0.41499957    -0.60500
H1523       H  0.79486542  0.41981117  0.41371613     0.43500
H1524       H  0.75161981  0.39354262  0.21588444     0.43500
C1525       C  0.74847565  0.06168562  0.29666646    -0.05600
C1526       C  0.75423818  0.05842054  0.34383950    -0.33000
C1527       C  0.75905154  0.08781118  0.37138920     0.36200
C1528       C  0.75852784  0.12196904  0.35184169    -0.05900
C1529       C  0.75475623  0.12489439  0.30384730    -0.32900
C1530       C  0.74944025  0.09525043  0.27648442     0.36100
H1531       H  0.75330937  0.03296694  0.35996811     0.16500
O1532       O  0.76248318  0.08255037  0.41794535    -0.60400
H1533       H  0.75480025  0.15026009  0.28751805     0.16500
O1534       O  0.74528194  0.09926593  0.22982881    -0.60500
H1535       H  0.72276451  0.11035090  0.22598703     0.43500
H1536       H  0.78647812  0.07562824  0.42240594     0.43500
O1537       O  0.76093754  0.68648496  0.36091637    -0.80200
O1538       O  0.75944328  0.68692839  0.62658578    -0.81800
O1539       O  0.81555513  0.64913385  0.48631298    -0.78800
O1540       O  0.70577985  0.65272627  0.48781894    -0.77200
O1541       O  0.66568928  0.69522547  0.49213100    -0.79000
O1542       O  0.85748111  0.69016240  0.48977639    -0.79900
O1543       O  0.75685832  0.64875554  0.56641359    -0.81300
O1544       O  0.76075623  0.64867454  0.42180563    -0.81500
Eu1545     Eu  0.76171682  0.67967039  0.49374664     2.39200
O1546       O  0.72959110  0.71452060  0.54309317    -0.89100
O1547       O  0.79597565  0.71352852  0.44511857    -0.92700
C1548       C  0.76042745  0.65502758  0.37837590     1.02000
C1549       C  0.75621828  0.65578081  0.60961738     1.01900
C1550       C  0.84687808  0.65879034  0.48551563     1.01800
C1551       C  0.67492824  0.66354817  0.48784283     0.99700
H1552       H  0.81107330  0.69634565  0.56116604     0.29400
O1553       O  0.79696417  0.71178586  0.54333667    -1.01400
H1554       H  0.71381105  0.70044088  0.42692282     0.29400
O1555       O  0.72868683  0.71464874  0.44534153    -1.04000
O1556       O  0.76363116  0.80944863  0.62496490    -0.81200
O1557       O  0.76226763  0.80866398  0.35934572    -0.80700
O1558       O  0.86159172  0.74557195  0.56655383    -0.79200
O1559       O  0.66764454  0.74602974  0.56913166    -0.82500
O1560       O  0.66647637  0.75119620  0.42174645    -0.80400
O1561       O  0.85944334  0.74413423  0.42034396    -0.79000
O1562       O  0.82028141  0.84386256  0.48688174    -0.80600
O1563       O  0.71018794  0.84692095  0.49918247    -0.82500
O1564       O  0.86057277  0.80142081  0.49082850    -0.79200
O1565       O  0.66874501  0.80533667  0.50321672    -0.81900
O1566       O  0.82409299  0.74816774  0.62704021    -0.77600
O1567       O  0.82227703  0.74548275  0.35983563    -0.77700
O1568       O  0.70375060  0.74957018  0.36077257    -0.77300
O1569       O  0.70571208  0.74881855  0.62854138    -0.80800
O1570       O  0.76615663  0.84768982  0.56440319    -0.80200
O1571       O  0.76238546  0.84678401  0.41927586    -0.78500
Eu1572     Eu  0.76450219  0.74797579  0.59287277     2.39800
Eu1573     Eu  0.76295858  0.74795665  0.39428843     2.39600
Eu1574     Eu  0.83038688  0.74651129  0.49397109     2.38400
Eu1575     Eu  0.69647823  0.74957134  0.49482792     2.39900
Eu1576     Eu  0.76462849  0.81640675  0.49251563     2.39800
O1577       O  0.72972549  0.78346116  0.44413829    -0.93000
O1578       O  0.79831751  0.78241021  0.54203438    -0.91900
C1579       C  0.76450978  0.84093196  0.60775695     1.02200
C1580       C  0.76192616  0.84004874  0.37601622     1.00900
C1581       C  0.85487203  0.74669804  0.61003339     1.00300
C1582       C  0.67492459  0.74700339  0.61229719     1.02300
C1583       C  0.67318648  0.75035560  0.37830851     1.01200
C1584       C  0.85278228  0.74353332  0.37705433     1.00100
C1585       C  0.85115264  0.83312776  0.48687149     1.00200
C1586       C  0.67911197  0.83696622  0.50470742     1.02800
H1587       H  0.81239928  0.79573350  0.42522483     0.30100
O1588       O  0.79765139  0.78134165  0.44415856    -1.05100
H1589       H  0.71733874  0.79735463  0.56162123     0.32200
O1590       O  0.73129111  0.78261901  0.54273777    -1.07700
N1591       N  0.96163440  0.99769885  0.44423215    -0.36700
N1592       N  0.51451503  0.94396810  0.55240394    -0.57300
N1593       N  0.56413332  0.99842710  0.55227333    -0.36700
N1594       N  0.51156436  0.55040414  0.45619055    -0.57300
C1595       C  0.94406005  0.97019195  0.46090676     0.26900
C1596       C  0.94161238  0.52335858  0.46298833     0.26900
C1597       C  0.58392042  0.97055217  0.56008325     0.26900
C1598       C  0.58107358  0.52783049  0.47162959     0.26900
C1599       C  0.98738780  0.92510774  0.44693517     0.35500
C1600       C  0.54204876  0.92550265  0.53993130     0.35500
C1601       C  0.98459898  0.56836264  0.44718231     0.35500
C1602       C  0.53860543  0.57095411  0.44805138     0.35500
C1603       C  0.91363530  0.98113302  0.48013251    -0.22000
C1604       C  0.91109073  0.51224455  0.48227162    -0.22000
C1605       C  0.61512844  0.98106171  0.57714014    -0.22000
C1606       C  0.60975152  0.51822295  0.49609288    -0.22000
C1607       C  0.99749711  0.89149185  0.43742315    -0.23100
C1608       C  0.53232919  0.89398305  0.52138053    -0.23100
C1609       C  0.99537806  0.60121762  0.43376565    -0.23100
C1610       C  0.52842478  0.60321806  0.43201576    -0.23100
C1611       C  0.95398555  0.93536177  0.45670900    -0.18400
C1612       C  0.95079277  0.55817481  0.45491584    -0.18400
C1613       C  0.57151694  0.56206440  0.46156027    -0.18400
C1614       C  0.57576832  0.93661730  0.54649969    -0.18400
H1615       H  0.89392498  0.96521062  0.49580454     0.14500
H1616       H  0.89035070  0.52807734  0.49460187     0.14500
H1617       H  0.63665914  0.96483793  0.58544256     0.14500
H1618       H  0.62783442  0.53511598  0.51289198     0.14500
H1619       H  0.98147201  0.86881343  0.43340954     0.12800
H1620       H  0.54857870  0.87360504  0.50855296     0.12800
H1621       H  0.97972310  0.62288006  0.42330571     0.12800
H1622       H  0.54437355  0.62546579  0.42407145     0.12800
H1623       H  0.98339751  0.99669450  0.42373363     0.26000
H1624       H  0.54193619  0.99868421  0.53300902     0.26000
O1625       O  0.98613941  0.94309501  0.86321108    -0.80200
O1626       O  0.98348791  0.93736004  0.12765777    -0.81200
O1627       O  0.54049096  0.90465498  0.99965301    -0.78800
O1628       O  0.92925872  0.90346597  0.00103777    -0.77200
O1629       O  0.88769678  0.94446326  0.99602589    -0.79000
O1630       O  0.58157250  0.94658747  0.99664674    -0.79900
O1631       O  0.98373390  0.89959147  0.06725574    -0.81300
O1632       O  0.98445885  0.90325043  0.92209831    -0.81500
Eu1633     Eu  0.98427777  0.93260835  0.99544003     2.39200
O1634       O  0.94991724  0.96596555  0.04350943    -0.89100
O1635       O  0.51916450  0.96719733  0.94792261    -0.92700
C1636       C  0.98511771  0.91118881  0.87903550     1.02000
C1637       C  0.98378673  0.90611849  0.11069584     1.01900
C1638       C  0.57175061  0.91474473  0.99930823     1.01800
C1639       C  0.89798399  0.91302176  0.00087600     0.99700
H1640       H  0.53276438  0.95077578  0.06412618     0.29400
O1641       O  0.51836092  0.96588061  0.04599080    -1.01400
H1642       H  0.93658029  0.95276102  0.92762711     0.29400
O1643       O  0.95085884  0.96731090  0.94640426    -1.04000
O1644       O  0.98663668  0.55753625  0.13506167    -0.81200
O1645       O  0.98783863  0.56339436  0.86864823    -0.80700
O1646       O  0.58050731  0.99970922  0.07012452    -0.79200
O1647       O  0.88674832  0.99570168  0.06848610    -0.82500
O1648       O  0.88773613  0.50372570  0.92484960    -0.80400
O1649       O  0.58134250  0.49987798  0.92622601    -0.79000
O1650       O  0.54037265  0.59551598  0.00748746    -0.80600
O1651       O  0.92690964  0.59732569  0.01151579    -0.82500
O1652       O  0.58059435  0.55317939  0.00679957    -0.79200
O1653       O  0.88666679  0.55467965  0.00684628    -0.81900
O1654       O  0.54243616  0.99826795  0.13017122    -0.77600
O1655       O  0.54530704  0.50178426  0.86493497    -0.77700
O1656       O  0.92700292  0.50325777  0.86609449    -0.77300
O1657       O  0.92377378  0.99640444  0.12927739    -0.80800
O1658       O  0.98708043  0.59813704  0.07670621    -0.80200
O1659       O  0.98394049  0.60075365  0.92926359    -0.78500
Eu1660     Eu  0.98291129  0.99870416  0.09584389     2.39800
Eu1661     Eu  0.98568837  0.50204138  0.90184256     2.39600
Eu1662     Eu  0.55129940  0.00172134  0.99745357     2.38400
Eu1663     Eu  0.91644275  0.00072996  0.99512943     2.39900
Eu1664     Eu  0.98249335  0.56948953  0.00263683     2.39800
O1665       O  0.95048719  0.53598358  0.95121429    -0.93000
O1666       O  0.51736763  0.53120811  0.04866551    -0.91900
C1667       C  0.98857951  0.58923721  0.11944236     1.02200
C1668       C  0.98652093  0.59462989  0.88583685     1.00900
C1669       C  0.57317387  0.99833490  0.11325333     1.00300
C1670       C  0.89338987  0.99480649  0.11185425     1.02300
C1671       C  0.89587591  0.50433250  0.88176271     1.01200
C1672       C  0.57570906  0.50166986  0.88269454     1.00100
C1673       C  0.57127055  0.58501025  0.00997667     1.00200
C1674       C  0.89591765  0.58633405  0.01258028     1.02800
H1675       H  0.53412249  0.54968171  0.93418188     0.30100
O1676       O  0.51902670  0.53454269  0.95129915    -1.05100
H1677       H  0.93425859  0.54753572  0.06989758     0.32200
O1678       O  0.94882755  0.53376022  0.05042873    -1.07700
N1679       N  0.78580686  0.74893581  0.05451966    -0.36700
N1680       N  0.73433841  0.80169987  0.04551415    -0.57300
N1681       N  0.68194131  0.75010246  0.04987926    -0.36700
N1682       N  0.73305545  0.69743485  0.05975150    -0.57300
C1683       C  0.80381725  0.77595519  0.03708631     0.26900
C1684       C  0.80298977  0.71983062  0.04368584     0.26900
C1685       C  0.66634778  0.77702332  0.02894739     0.26900
C1686       C  0.66572664  0.72108812  0.03620979     0.26900
C1687       C  0.76183985  0.82189194  0.05208847     0.35500
C1688       C  0.70706771  0.82248995  0.04941611     0.35500
C1689       C  0.75990060  0.67733823  0.06988702     0.35500
C1690       C  0.70510212  0.67830363  0.06891935     0.35500
C1691       C  0.83295090  0.76400725  0.01544470    -0.22000
C1692       C  0.83237282  0.72848779  0.01945924    -0.22000
C1693       C  0.64020054  0.76508855  0.00143170    -0.22000
C1694       C  0.63994066  0.72961995  0.00575854    -0.22000
C1695       C  0.75207342  0.85561604  0.06164062    -0.23100
C1696       C  0.71714034  0.85596342  0.06014408    -0.23100
C1697       C  0.74911543  0.64545303  0.08699971    -0.23100
C1698       C  0.71415808  0.64617840  0.08683835    -0.23100
C1699       C  0.79508656  0.81115705  0.04179553    -0.18400
C1700       C  0.79328757  0.68582614  0.05658609    -0.18400
C1701       C  0.67272878  0.68739886  0.05254819    -0.18400
C1702       C  0.67423603  0.81214589  0.03626741    -0.18400
H1703       H  0.85247333  0.77926151  0.99824614     0.14500
H1704       H  0.85140839  0.71106141  0.00595958     0.14500
H1705       H  0.62316184  0.78036626  0.98040501     0.14500
H1706       H  0.62264067  0.71214670  0.98853300     0.14500
H1707       H  0.76843074  0.87790417  0.06679433     0.12800
H1708       H  0.70119053  0.87855752  0.06407799     0.12800
H1709       H  0.76475263  0.62350049  0.09638917     0.12800
H1710       H  0.69744350  0.62477139  0.09591168     0.12800
H1711       H  0.76469712  0.75055975  0.07622505     0.26000
H1712       H  0.70016030  0.75169134  0.07577926     0.26000
C1713       C  0.54412011  0.75050179  0.27565607     0.86400
C1714       C  0.54261220  0.71928205  0.24362489    -0.53900
C1715       C  0.01420359  0.71703830  0.21885855     0.09300
C1716       C  0.98936739  0.74762018  0.22747859     0.20200
C1717       C  0.53752869  0.78221283  0.24476273    -0.54600
C1718       C  0.00987343  0.78176358  0.22039149     0.09400
C1719       C  0.01213164  0.74814383  0.30531740    -0.54100
C1720       C  0.98266046  0.74640592  0.27983773     0.10000
H1721       H  0.56249624  0.69985383  0.24378181     0.14500
H1722       H  0.96612035  0.74636422  0.20633818     0.00200
H1723       H  0.55339356  0.80527177  0.24492054     0.14800
H1724       H  0.01198462  0.74822382  0.34270691     0.14600
C1725       C  0.70171928  0.00032143  0.21429901     0.86400
C1726       C  0.70501173  0.96807788  0.24506482    -0.53900
C1727       C  0.73485421  0.96567654  0.26853344     0.09300
C1728       C  0.75856962  0.99758940  0.26088301     0.20200
C1729       C  0.70665800  0.52900486  0.24483117    -0.54600
C1730       C  0.73614383  0.52977767  0.26929410     0.09400
C1731       C  0.73431162  0.00036420  0.18400482    -0.54100
C1732       C  0.76410968  0.99806581  0.20837733     0.10000
H1733       H  0.68563899  0.94790998  0.24643649     0.14500
H1734       H  0.78257334  0.99635175  0.28073947     0.00200
H1735       H  0.68951438  0.55094710  0.24435625     0.14800
H1736       H  0.73397699  0.00254153  0.14675610     0.14600
C1737       C  0.54614291  0.75253248  0.71749423     0.86400
C1738       C  0.54093866  0.78394679  0.74893552    -0.53900
C1739       C  0.01020148  0.78543373  0.77300298     0.09300
C1740       C  0.98793398  0.75245499  0.76413026     0.20200
C1741       C  0.54145856  0.72076183  0.74892745    -0.54600
C1742       C  0.01053465  0.71994778  0.77371999     0.09400
C1743       C  0.01458856  0.75328425  0.68829468    -0.54100
C1744       C  0.98378089  0.75227089  0.71125774     0.10000
H1745       H  0.55850211  0.80559443  0.75057790     0.14500
H1746       H  0.96335204  0.75199675  0.78307034     0.00200
H1747       H  0.56037516  0.70038833  0.75103826     0.14800
H1748       H  0.01639532  0.75448047  0.65103319     0.14600
C1749       C  0.70516917  0.99644916  0.77591736     0.86400
C1750       C  0.70789221  0.52758572  0.74125303    -0.53900
C1751       C  0.73730493  0.52822439  0.71626269     0.09300
C1752       C  0.76141725  0.99727121  0.72670047     0.20200
C1753       C  0.70981967  0.96429208  0.74598254    -0.54600
C1754       C  0.73921307  0.96388186  0.72056579     0.09400
C1755       C  0.73863529  0.99772131  0.80450711    -0.54100
C1756       C  0.76807772  0.99877317  0.77882895     0.10000
H1757       H  0.68867931  0.54759627  0.73781355     0.14500
H1758       H  0.78526773  0.99745395  0.70621220     0.00200
H1759       H  0.69161052  0.94303162  0.74585311     0.14800
H1760       H  0.73972550  0.99684033  0.84170370     0.14600
C1761       C  0.60346164  0.99613494  0.14343368    -0.05600
C1762       C  0.63145067  0.97689897  0.12773180    -0.33000
C1763       C  0.66292970  0.97823588  0.14989516     0.36200
C1764       C  0.66765790  0.99993873  0.18840029    -0.05900
C1765       C  0.63789594  0.51070591  0.20842458    -0.32900
C1766       C  0.60618659  0.50889789  0.18626469     0.36100
H1767       H  0.62903046  0.96080725  0.09743014     0.16500
O1768       O  0.68859944  0.95729300  0.13432704    -0.60400
H1769       H  0.63919228  0.52506712  0.24019743     0.16500
O1770       O  0.57899608  0.52660676  0.20399116    -0.60500
H1771       H  0.58444943  0.55151982  0.19920336     0.43500
H1772       H  0.69506356  0.96664626  0.10352915     0.43500
C1773       C  0.86282618  0.99182362  0.14207211    -0.05600
C1774       C  0.83532876  0.97152415  0.12675101    -0.33000
C1775       C  0.80346393  0.97286520  0.14839628     0.36200
C1776       C  0.79835333  0.99486399  0.18633369    -0.05900
C1777       C  0.82634318  0.01356912  0.20353633    -0.32900
C1778       C  0.85838929  0.01216128  0.18172168     0.36100
H1779       H  0.83831376  0.95508565  0.09686203     0.16500
O1780       O  0.77774197  0.95178313  0.13302671    -0.60400
H1781       H  0.82306229  0.03038823  0.23293692     0.16500
O1782       O  0.88432924  0.03272800  0.19735929    -0.60500
H1783       H  0.89681349  0.01801396  0.21968681     0.43500
H1784       H  0.77097073  0.96156263  0.10274117     0.43500
C1785       C  0.99790924  0.81318835  0.19442477    -0.05600
C1786       C  0.50105061  0.84599648  0.21444547    -0.33000
C1787       C  0.49557859  0.87672099  0.18906405     0.36200
C1788       C  0.98546201  0.87477042  0.14186845    -0.05900
C1789       C  0.97995954  0.84133440  0.12328131    -0.32900
C1790       C  0.98591582  0.81092804  0.14908666     0.36100
H1791       H  0.51072371  0.84817288  0.24917521     0.16500
O1792       O  0.50316702  0.90798760  0.20886752    -0.60400
H1793       H  0.97207888  0.83851005  0.08780736     0.16500
O1794       O  0.98260801  0.77924262  0.12834169    -0.60500
H1795       H  0.95781255  0.77451741  0.12772554     0.43500
H1796       H  0.52736686  0.91248535  0.20100106     0.43500
C1797       C  0.00634153  0.68421143  0.19291635    -0.05600
C1798       C  0.53354008  0.66409761  0.17317277    -0.33000
C1799       C  0.52888414  0.63117441  0.15358737     0.36200
C1800       C  0.99503154  0.61843847  0.15113718    -0.05900
C1801       C  0.96794195  0.63691505  0.17057070    -0.32900
C1802       C  0.97338261  0.66925511  0.19190426     0.36100
H1803       H  0.55890420  0.67512751  0.17280248     0.16500
O1804       O  0.55630893  0.61412491  0.13538085    -0.60400
H1805       H  0.94234571  0.62657183  0.16841850     0.16500
O1806       O  0.94651464  0.68514722  0.21317489    -0.60500
H1807       H  0.93174601  0.69353080  0.18787311     0.43500
H1808       H  0.57007036  0.60675228  0.16219569     0.43500
C1809       C  0.64794194  0.83851533  0.02613592    -0.05600
C1810       C  0.65423657  0.86461000  0.99306962    -0.33000
C1811       C  0.62957051  0.88963189  0.98331721     0.36200
C1812       C  0.59779402  0.88798231  0.00581593    -0.05900
C1813       C  0.59123620  0.86127251  0.03777292    -0.32900
C1814       C  0.61602528  0.83674256  0.04815988     0.36100
H1815       H  0.67837581  0.86560719  0.97493610     0.16500
O1816       O  0.63626972  0.91478891  0.95075755    -0.60400
H1817       H  0.56708410  0.85998077  0.05588256     0.16500
O1818       O  0.60935234  0.81180627  0.08107622    -0.60500
H1819       H  0.59228957  0.79605218  0.06718458     0.43500
H1820       H  0.65120123  0.93185455  0.96625498     0.43500
C1821       C  0.87223631  0.88626426  0.00986167    -0.05600
C1822       C  0.84325656  0.88408749  0.98216330    -0.33000
C1823       C  0.81801537  0.85947558  0.99205793     0.36200
C1824       C  0.82118317  0.83767114  0.03096994    -0.05900
C1825       C  0.85013013  0.83989628  0.05859197    -0.32900
C1826       C  0.87563596  0.86398311  0.04822346     0.36100
H1827       H  0.84045219  0.90117513  0.95261226     0.16500
O1828       O  0.79040781  0.85684024  0.96358973    -0.60400
H1829       H  0.85284124  0.82294956  0.08830788     0.16500
O1830       O  0.90345010  0.86617059  0.07638463    -0.60500
H1831       H  0.89630481  0.88118616  0.10225555     0.43500
H1832       H  0.79460668  0.83593790  0.94469849     0.43500
C1833       C  0.81794063  0.65765848  0.04912055    -0.05600
C1834       C  0.81286094  0.63472635  0.01249615    -0.33000
C1835       C  0.83809872  0.61113746  0.00027722     0.36200
C1836       C  0.86917875  0.61114044  0.02399544    -0.05900
C1837       C  0.87381459  0.63334143  0.06155175    -0.32900
C1838       C  0.84823681  0.65635640  0.07443718     0.36100
H1839       H  0.78966806  0.63584708  0.99257515     0.16500
O1840       O  0.83290874  0.58945331  0.96369496    -0.60400
H1841       H  0.89714217  0.63253323  0.08123098     0.16500
O1842       O  0.85286298  0.67745110  0.11176894    -0.60500
H1843       H  0.86709252  0.69704366  0.10036612     0.43500
H1844       H  0.81918463  0.56985486  0.97623076     0.43500
C1845       C  0.59744571  0.61121135  0.01965193    -0.05600
C1846       C  0.58864892  0.64008938  0.04625348    -0.33000
C1847       C  0.61334694  0.66390876  0.05984252     0.36200
C1848       C  0.64709571  0.66000042  0.04456823    -0.05900
C1849       C  0.65568119  0.63181064  0.01674134    -0.32900
C1850       C  0.63135460  0.60705402  0.00523966     0.36100
H1851       H  0.56262777  0.64394900  0.05733213     0.16500
O1852       O  0.60449775  0.69085318  0.08812905    -0.60400
H1853       H  0.68130343  0.62919488  0.00336159     0.16500
O1854       O  0.64066269  0.57988748  0.97796796    -0.60500
H1855       H  0.65434585  0.56446118  0.99804383     0.43500
H1856       H  0.58881924  0.70558543  0.06992363     0.43500
C1857       C  0.80279555  0.00310183  0.79979675    -0.05600
C1858       C  0.83071804  0.98320829  0.78477538    -0.33000
C1859       C  0.86261054  0.98529621  0.80704608     0.36200
C1860       C  0.86635121  0.50683628  0.84951823    -0.05900
C1861       C  0.84089972  0.53142701  0.85863172    -0.32900
C1862       C  0.80969221  0.53102712  0.83519283     0.36100
H1863       H  0.82743477  0.96493014  0.75697235     0.16500
O1864       O  0.88836844  0.96373415  0.79361798    -0.60400
H1865       H  0.84497072  0.55073296  0.88498620     0.16500
O1866       O  0.78625880  0.55640096  0.84415749    -0.60500
H1867       H  0.77711973  0.55100100  0.87531705     0.43500
H1868       H  0.90062411  0.97661689  0.76886515     0.43500
C1869       C  0.67097671  0.99777068  0.80258393    -0.05600
C1870       C  0.67013505  0.00809574  0.84877655    -0.33000
C1871       C  0.63974064  0.01058471  0.87350559     0.36200
C1872       C  0.60742670  0.50380863  0.85319977    -0.05900
C1873       C  0.60840809  0.49277001  0.80716805    -0.32900
C1874       C  0.63951584  0.49158878  0.78231883     0.36100
H1875       H  0.69291587  0.01542965  0.86672531     0.16500
O1876       O  0.64186390  0.02086312  0.91854496    -0.60400
H1877       H  0.58520700  0.48441466  0.79058785     0.16500
O1878       O  0.63895407  0.48120257  0.73725518    -0.60500
H1879       H  0.63293400  0.50226831  0.71929766     0.43500
H1880       H  0.65000370  0.00023160  0.93584161     0.43500
C1881       C  0.98901688  0.62652243  0.85508817    -0.05600
C1882       C  0.99901043  0.62409007  0.80860637    -0.33000
C1883       C  0.00445311  0.65411554  0.78127330     0.36200
C1884       C  0.00004583  0.68775162  0.79995491    -0.05900
C1885       C  0.48632414  0.68921216  0.84287221    -0.32900
C1886       C  0.48039819  0.65936961  0.87035606     0.36100
H1887       H  0.00349659  0.59887393  0.79357952     0.16500
O1888       O  0.01461097  0.65020995  0.73632390    -0.60400
H1889       H  0.48046474  0.71451895  0.85674964     0.16500
O1890       O  0.46595237  0.66361554  0.91307322    -0.60500
H1891       H  0.48417930  0.67354478  0.93251854     0.43500
H1892       H  0.99373478  0.65342930  0.71780645     0.43500
C1893       C  0.98560893  0.88031199  0.84739797    -0.05600
C1894       C  0.49896040  0.88036148  0.80457515    -0.33000
C1895       C  0.50454502  0.85030534  0.77804215     0.36200
C1896       C  0.99872470  0.81839462  0.79627696    -0.05900
C1897       C  0.98066152  0.81690300  0.83791840    -0.32900
C1898       C  0.97370735  0.84724053  0.86297032     0.36100
H1899       H  0.50393695  0.90560877  0.78925518     0.16500
O1900       O  0.51405969  0.85409018  0.73270419    -0.60400
H1901       H  0.97286701  0.79198508  0.85203903     0.16500
O1902       O  0.95586749  0.84399364  0.90353155    -0.60500
H1903       H  0.93169462  0.84706339  0.89494013     0.43500
H1904       H  0.53742968  0.86384804  0.73321972     0.43500
C1905       C  0.94980287  0.74953287  0.68744348    -0.05600
C1906       C  0.92138874  0.76854499  0.70290530    -0.33000
C1907       C  0.88968535  0.76681660  0.67993379     0.36200
C1908       C  0.88573503  0.74576009  0.64068074    -0.05900
C1909       C  0.91383734  0.72575219  0.62669058    -0.32900
C1910       C  0.94527658  0.72737646  0.64948405     0.36100
H1911       H  0.92400677  0.78565108  0.73212273     0.16500
O1912       O  0.86353617  0.78749855  0.69437755    -0.60400
H1913       H  0.91157633  0.70882654  0.59720665     0.16500
O1914       O  0.97109193  0.70605488  0.63536390    -0.60500
H1915       H  0.97923603  0.71595555  0.60562841     0.43500
H1916       H  0.85275049  0.77464472  0.72036878     0.43500
C1917       C  0.64459904  0.74604590  0.64363244    -0.05600
C1918       C  0.61645908  0.72563637  0.63098307    -0.33000
C1919       C  0.58515486  0.72761187  0.65433244     0.36200
C1920       C  0.58057954  0.75107099  0.69110013    -0.05900
C1921       C  0.60963363  0.77017137  0.70531269    -0.32900
C1922       C  0.64114027  0.76784833  0.68196550     0.36100
H1923       H  0.61857607  0.70812422  0.60207647     0.16500
O1924       O  0.55926378  0.70588934  0.64124930    -0.60400
H1925       H  0.60866644  0.78672122  0.73508447     0.16500
O1926       O  0.66778139  0.78837958  0.69552763    -0.60500
H1927       H  0.67897851  0.77520165  0.72064524     0.43500
H1928       H  0.55226360  0.71416343  0.61027349     0.43500
C1929       C  0.75057344  0.62468812  0.63990684    -0.05600
C1930       C  0.77330296  0.61587433  0.67526571    -0.33000
C1931       C  0.77084830  0.58345633  0.69833683     0.36200
C1932       C  0.74512692  0.55936750  0.68666726    -0.05900
C1933       C  0.72222540  0.56852833  0.65177902    -0.32900
C1934       C  0.72494974  0.60041930  0.62830585     0.36100
H1935       H  0.79348619  0.63374944  0.68427228     0.16500
O1936       O  0.79268621  0.57631333  0.73373951    -0.60400
H1937       H  0.70162803  0.55099516  0.64318358     0.16500
O1938       O  0.70163399  0.60817778  0.59477793    -0.60500
H1939       H  0.70951852  0.59579569  0.56688839     0.43500
H1940       H  0.81358814  0.56748816  0.71872513     0.43500
C1941       C  0.74920577  0.93236385  0.69346768    -0.05600
C1942       C  0.76078870  0.93590106  0.64804766    -0.33000
C1943       C  0.76684935  0.90665091  0.62050949     0.36200
C1944       C  0.76194700  0.87235185  0.63837106    -0.05900
C1945       C  0.75179171  0.86897452  0.68466497    -0.32900
C1946       C  0.74552189  0.89836738  0.71197584     0.36100
H1947       H  0.76393329  0.96153073  0.63307509     0.16500
O1948       O  0.77744517  0.91221165  0.57591298    -0.60400
H1949       H  0.74777518  0.84342314  0.69957796     0.16500
O1950       O  0.73544647  0.89339935  0.75685583    -0.60500
H1951       H  0.75575344  0.89888332  0.77558900     0.43500
H1952       H  0.75645890  0.91735308  0.55836693     0.43500
C1953       C  0.87269354  0.63241518  0.47803685    -0.05600
C1954       C  0.90071153  0.63106688  0.50745481    -0.33000
C1955       C  0.92659516  0.60725186  0.49971311     0.36200
C1956       C  0.92484111  0.58506956  0.46153888    -0.05900
C1957       C  0.89696694  0.58662836  0.43179015    -0.32900
C1958       C  0.87082753  0.61014261  0.43992874     0.36100
H1959       H  0.90223931  0.64817897  0.53684332     0.16500
O1960       O  0.95268330  0.60458239  0.53071374    -0.60400
H1961       H  0.89541584  0.56933229  0.40260494     0.16500
O1962       O  0.84389360  0.61153714  0.41017960    -0.60500
H1963       H  0.84905271  0.63110092  0.38883398     0.43500
H1964       H  0.96804323  0.62442194  0.52365809     0.43500
C1965       C  0.59683959  0.58952154  0.46729857    -0.05600
C1966       C  0.62426505  0.59120761  0.43654671    -0.33000
C1967       C  0.65017702  0.61525409  0.44324814     0.36200
C1968       C  0.64829188  0.63804958  0.48074021    -0.05900
C1969       C  0.62036449  0.63698827  0.51080967    -0.32900
C1970       C  0.59472910  0.61248265  0.50453517     0.36100
H1971       H  0.62570742  0.57351882  0.40775334     0.16500
O1972       O  0.67657401  0.61721189  0.41220986    -0.60400
H1973       H  0.61891399  0.65458121  0.53970156     0.16500
O1974       O  0.56865308  0.60993975  0.53597887    -0.60500
H1975       H  0.55154788  0.62708657  0.52565656     0.43500
H1976       H  0.69187300  0.59780235  0.42052250     0.43500
C1977       C  0.60370560  0.91221078  0.53706158    -0.05600
C1978       C  0.60732652  0.88266537  0.56486736    -0.33000
C1979       C  0.63212855  0.85813766  0.55463890     0.36200
C1980       C  0.65369556  0.86316138  0.51618753    -0.05900
C1981       C  0.65078512  0.89323849  0.48917662    -0.32900
C1982       C  0.62573828  0.91767342  0.49924895     0.36100
H1983       H  0.59056845  0.87846717  0.59416740     0.16500
O1984       O  0.63515250  0.82931380  0.58236513    -0.60400
H1985       H  0.66728829  0.89726544  0.45957894     0.16500
O1986       O  0.62184040  0.94594145  0.47078409    -0.60500
H1987       H  0.63804019  0.96358761  0.48235799     0.43500
H1988       H  0.64883848  0.83699380  0.60905060     0.43500
C1989       C  0.87754749  0.85887186  0.47934293    -0.05600
C1990       C  0.90283113  0.86349638  0.51241948    -0.33000
C1991       C  0.92819384  0.88834349  0.50523058     0.36200
C1992       C  0.92819283  0.90836778  0.46453329    -0.05900
C1993       C  0.90321818  0.90323368  0.43113949    -0.32900
C1994       C  0.87801807  0.87833122  0.43821514     0.36100
H1995       H  0.90256768  0.84822291  0.54393914     0.16500
O1996       O  0.95220525  0.89374813  0.53853682    -0.60400
H1997       H  0.90344239  0.91849818  0.39961512     0.16500
O1998       O  0.85425705  0.87278139  0.40459637    -0.60500
H1999       H  0.86174761  0.85153170  0.38844988     0.43500
H2000       H  0.96971608  0.87577646  0.53323233     0.43500
C2001       C  0.64243595  0.74899916  0.34839878    -0.05600
C2002       C  0.61492967  0.72808863  0.36292307    -0.33000
C2003       C  0.58360886  0.72850465  0.34010424     0.36200
C2004       C  0.57813574  0.75123420  0.30239462    -0.05900
C2005       C  0.60654347  0.77097458  0.28644848    -0.32900
C2006       C  0.63811732  0.77027854  0.30933067     0.36100
H2007       H  0.61772492  0.71110299  0.39260001     0.16500
O2008       O  0.55846285  0.70645426  0.35542274    -0.60400
H2009       H  0.60493604  0.78674803  0.25563846     0.16500
O2010       O  0.66423910  0.79099127  0.29364165    -0.60500
H2011       H  0.66249180  0.81268596  0.31164932     0.43500
H2012       H  0.56131405  0.68497961  0.33725037     0.43500
C2013       C  0.88356588  0.74017010  0.34697886    -0.05600
C2014       C  0.88756107  0.75971117  0.30626583    -0.33000
C2015       C  0.91929344  0.76137432  0.28321669     0.36200
C2016       C  0.94779618  0.74341661  0.30099224    -0.05900
C2017       C  0.94311259  0.72253372  0.34030084    -0.32900
C2018       C  0.91165253  0.72065754  0.36294125     0.36100
H2019       H  0.86665849  0.77523945  0.29364859     0.16500
O2020       O  0.92276895  0.78293153  0.24565380    -0.60400
H2021       H  0.96414350  0.70771527  0.35401826     0.16500
O2022       O  0.90902504  0.70042718  0.40194419    -0.60500
H2023       H  0.89968025  0.67793316  0.39139014     0.43500
H2024       H  0.90961487  0.77171290  0.22074274     0.43500
C2025       C  0.75967933  0.87151965  0.34508551    -0.05600
C2026       C  0.74579051  0.86932823  0.30070296    -0.33000
C2027       C  0.73852708  0.89952504  0.27486882     0.36200
C2028       C  0.74490068  0.93296568  0.29326906    -0.05900
C2029       C  0.76062847  0.93510190  0.33614695    -0.32900
C2030       C  0.76811441  0.90510475  0.36187936     0.36100
H2031       H  0.73933574  0.84422016  0.28658829     0.16500
O2032       O  0.72480568  0.89589937  0.23181346    -0.60400
H2033       H  0.76616332  0.96030030  0.35070364     0.16500
O2034       O  0.78243309  0.90917171  0.40454153    -0.60500
H2035       H  0.80552802  0.91869779  0.39871505     0.43500
H2036       H  0.74388165  0.90023982  0.21000748     0.43500
C2037       C  0.74671064  0.56173084  0.29501106    -0.05600
C2038       C  0.75469347  0.55915743  0.34164481    -0.33000
C2039       C  0.76068010  0.58892383  0.36822097     0.36200
C2040       C  0.75833830  0.62296011  0.34846489    -0.05900
C2041       C  0.75205800  0.62527571  0.30086873    -0.32900
C2042       C  0.74628141  0.59516834  0.27432961     0.36100
H2043       H  0.75516256  0.53384880  0.35818352     0.16500
O2044       O  0.76734390  0.58417396  0.41423406    -0.60400
H2045       H  0.75077651  0.65048662  0.28424505     0.16500
O2046       O  0.74094768  0.59860378  0.22783608    -0.60500
H2047       H  0.71779483  0.60837187  0.22478123     0.43500
H2048       H  0.78949751  0.57205789  0.41564263     0.43500
loop_ 
_geom_bond_atom_site_label_1 
_geom_bond_atom_site_label_2 
_geom_bond_distance 
_geom_bond_site_symmetry_2 
_ccdc_geom_bond_type 
O1           C12   1.308       .  A
O1          Eu37   2.553       .  S
O2           C13   1.305       .  A
O2          Eu36   2.539       .  S
O3           C14   1.287       .  A
O3           Eu9   2.446       .  S
O4           C15   1.286       .  A
O4           Eu9   2.436       .  S
O5           C15   1.284       .  A
O5          Eu39   2.425       .  S
O6           C14   1.287       .  A
O6          Eu38   2.441       .  S
O7           C13   1.284       .  A
O7           Eu9   2.415       .  S
O8           C12   1.284       .  A
O8           Eu9   2.421       .  S
Eu9          O19   2.343       .  S
Eu9          O11   2.342       .  S
Eu9          O10   2.352       .  S
Eu9          O17   2.342       .  S
O10         Eu39   2.340       .  S
O10         Eu36   2.380       .  S
O11         Eu37   2.385       .  S
O11         Eu38   2.347       .  S
C12         C504   1.514       .  S
C13         C393   1.484       .  S
C14         C417   1.466       .  S
C15         C432   1.459       .  S
H16          O17   0.967       .  S
O17         Eu38   2.335       .  S
O17         Eu36   2.360       .  S
H18          O19   0.962       .  S
O19         Eu37   2.362       .  S
O19         Eu39   2.344       .  S
O20          C43   1.304       .  A
O20         Eu36   2.528       .  S
O21          C44   1.308       .  A
O21         Eu37   2.552       .  S
O22          C45   1.285       .  A
O22         Eu38   2.419       .  S
O23          C46   1.285       .  A
O23         Eu39   2.423       .  S
O24          C47   1.285       .  A
O24         Eu39   2.423       .  S
O25          C48   1.285       .  A
O25         Eu38   2.417       .  S
O26          C49   1.288       .  A
O26         Eu40   2.447       .  S
O27          C50   1.287       .  A
O27         Eu40   2.441       .  S
O28          C49   1.284       .  A
O28         Eu38   2.430       .  S
O29          C50   1.283       .  A
O29         Eu39   2.420       .  S
O30          C45   1.303       .  A
O30         Eu36   2.532       .  S
O31          C48   1.303       .  A
O31         Eu37   2.523       .  S
O32          C47   1.305       .  A
O32         Eu37   2.536       .  S
O33          C46   1.301       .  A
O33         Eu36   2.514       .  S
O34          C43   1.287       .  A
O34         Eu40   2.430       .  S
O35          C44   1.285       .  A
O35         Eu40   2.427       .  S
Eu36         O54   2.371       .  S
Eu36         O42   2.379       .  S
Eu37         O41   2.370       .  S
Eu37         O52   2.375       .  S
Eu38         O52   2.353       .  S
Eu38         O42   2.344       .  S
Eu39         O41   2.342       .  S
Eu39         O54   2.342       .  S
Eu40         O41   2.344       .  S
Eu40         O52   2.345       .  S
Eu40         O54   2.350       .  S
Eu40         O42   2.347       .  S
C43         C408   1.500       .  S
C44         C489   1.515       .  S
C45         C372   1.499       .  S
C46         C381   1.483       .  S
C47         C465   1.494       .  S
C48         C477   1.487       .  S
C49         C453   1.459       .  S
C50         C444   1.458       .  S
H51          O52   0.965       .  S
H53          O54   0.962       .  S
N55          H87   1.042       .  S
N55          C59   1.348       .  A
N55         C572   1.351       .  A
N56          C64   1.344       .  A
N56        C1087   1.341   1_455  A
N57          H88   1.042       .  S
N57          C61   1.347       .  A
N57         C574   1.346       .  A
N58          C66   1.344       .  A
N58        C1089   1.345   1_455  A
C59          C67   1.387       .  A
C59          C75   1.408       .  A
C60         N567   1.350   1_545  A
C60          C76   1.409       .  A
C60          C68   1.387       .  A
C61          C69   1.386       .  A
C61          C78   1.403       .  A
C62         N569   1.348   1_545  A
C62          C77   1.407       .  A
C62          C70   1.389       .  A
C63        N1080   1.343       .  A
C63          C75   1.402       .  A
C63          C71   1.386       .  A
C64          C78   1.401       .  A
C64          C72   1.386       .  A
C65        N1082   1.349       .  A
C65          C73   1.387       .  A
C65          C76   1.409       .  A
C66          C74   1.386       .  A
C66          C77   1.402       .  A
C67         C580   1.374       .  A
C67          H79   1.082       .  S
C68         C579   1.376   1_545  A
C68          H80   1.083       .  S
C69         C582   1.375       .  A
C69          H81   1.083       .  S
C70         C581   1.372   1_545  A
C70          H82   1.082       .  S
C71        C1096   1.375       .  A
C71          H83   1.082       .  S
C72        C1095   1.375   1_455  A
C72          H84   1.082       .  S
C73        C1098   1.373       .  A
C73          H85   1.082       .  S
C74        C1097   1.376   1_455  A
C74          H86   1.083       .  S
C75         C456   1.469       .  S
C76         C420   1.480       .  S
C77         C429   1.470       .  S
C78         C441   1.468       .  S
O89         C100   1.309       .  A
O89        Eu637   2.555       .  S
O90         C101   1.307       .  A
O90        Eu124   2.547       .  S
O91         C102   1.288       .  A
O91       Eu1121   2.446   1_454  S
O92         C103   1.287       .  A
O92         Eu97   2.442   1_554  S
O93         C103   1.284       .  A
O93        Eu127   2.427   1_554  S
O94         C102   1.284       .  A
O94        Eu126   2.423       .  S
O95         C101   1.288       .  A
O95         Eu97   2.435   1_554  S
O96         C100   1.282       .  A
O96         Eu97   2.408       .  S
Eu97       O1115   2.447   1_556  S
Eu97        O107   2.355       .  S
Eu97         O98   2.334   1_556  S
Eu97       O1123   2.357       .  S
Eu97       O1129   2.337   1_556  S
O98        Eu127   2.344   1_554  S
O98        Eu124   2.365       .  S
O99        Eu126   2.342   1_556  S
O99       Eu1121   2.343   1_455  S
O99       Eu1661   2.377   1_455  S
C100        C357   1.507       .  S
C101        C252   1.512       .  S
C102        C276   1.464       .  S
C103        C285   1.465       .  S
H104        O105   0.966       .  S
O105       Eu126   2.328       .  S
O105      Eu1121   2.334   1_454  S
O105      Eu1148   2.356   1_455  S
H106        O107   0.968       .  S
O107       Eu127   2.350       .  S
O107       Eu637   2.389       .  S
O108        C131   1.298       .  A
O108       Eu636   2.498   1_545  S
O109        C132   1.306       .  A
O109       Eu125   2.535       .  S
O110        C133   1.286       .  A
O110       Eu126   2.427       .  S
O111        C134   1.288       .  A
O111       Eu127   2.440   1_554  S
O112        C135   1.288       .  A
O112       Eu639   2.437       .  S
O113        C136   1.280       .  A
O113       Eu638   2.396       .  S
O114        C137   1.287       .  A
O114      Eu1152   2.444   1_455  S
O115        C138   1.289       .  A
O115       Eu128   2.453   1_554  S
O116        C137   1.285       .  A
O116       Eu638   2.429   1_554  S
O117        C138   1.287       .  A
O117       Eu639   2.448   1_554  S
O118        C133   1.300       .  A
O118      Eu1148   2.512   1_455  S
O119        C136   1.305       .  A
O119      Eu1149   2.540   1_455  S
O120        C135   1.304       .  A
O120       Eu125   2.531       .  S
O121        C134   1.304       .  A
O121       Eu124   2.532       .  S
O122        C131   1.287       .  A
O122       Eu128   2.437   1_554  S
O123        C132   1.285       .  A
O123       Eu128   2.420       .  S
Eu124       O620   2.528       .  S
Eu124      O1142   2.528       .  S
Eu124      O1129   2.364       .  S
Eu124       O654   2.378       .  S
Eu124      O1666   2.370       .  S
Eu125       O601   2.563   1_545  S
Eu125      O1143   2.549       .  S
Eu125       O129   2.395       .  S
Eu125      O1635   2.371   1_545  S
Eu125       O619   2.373   1_545  S
Eu125      O1164   2.382       .  S
Eu126       O625   2.405   1_554  S
Eu126       O628   2.417       .  S
Eu126       O652   2.343   1_554  S
Eu126       O642   2.332       .  S
Eu127       O624   2.448       .  S
Eu127       O629   2.425   1_556  S
Eu127       O641   2.344       .  S
Eu127       O654   2.353   1_556  S
Eu128      O1138   2.430   1_556  S
Eu128       O129   2.349       .  S
Eu128       O142   2.336   1_556  S
Eu128      O1164   2.360       .  S
Eu128      O1154   2.341   1_556  S
O129       Eu639   2.340       .  S
O130      Eu1660   2.360   1_445  S
O130       Eu638   2.329   1_554  S
O130      Eu1152   2.344   1_455  S
C131        C264   1.474       .  S
C132        C345   1.505       .  S
C133        C225   1.486       .  S
C134        C237   1.495       .  S
C135        C324   1.495       .  S
C136        C336   1.503       .  S
C137        C309   1.466       .  S
C138        C300   1.477       .  S
H139        O140   0.964       .  S
O140      Eu1149   2.386   1_455  S
O140       Eu638   2.344       .  S
O140      Eu1152   2.360   1_456  S
H141        O142   0.965       .  S
O142       Eu636   2.375   1_545  S
O142       Eu639   2.340   1_554  S
N143        H175   1.043       .  S
N143        C148   1.352       .  A
N143        C147   1.351       .  A
N144        C151   1.343       .  A
N144        C152   1.345       .  A
N145        H176   1.043       .  S
N145        C150   1.346       .  A
N145        C149   1.349       .  A
N146        C153   1.348       .  A
N146        C154   1.347       .  A
C147        C155   1.388       .  A
C147        C163   1.411       .  A
C148        C164   1.410       .  A
C148        C156   1.386       .  A
C149        C157   1.387       .  A
C149        C166   1.405       .  A
C150        C165   1.404       .  A
C150        C158   1.387       .  A
C151        C163   1.403       .  A
C151        C159   1.387       .  A
C152        C166   1.405       .  A
C152        C160   1.386       .  A
C153        C161   1.386       .  A
C153        C164   1.409       .  A
C154        C162   1.386       .  A
C154        C165   1.408       .  A
C155        C156   1.372       .  A
C155        H167   1.082       .  S
C156        H168   1.082       .  S
C157        C158   1.372       .  A
C157        H169   1.082   1_554  S
C158        H170   1.082   1_554  S
C159        C160   1.377       .  A
C159        H171   1.082       .  S
C160        H172   1.083       .  S
C161        C162   1.378       .  A
C161        H173   1.082       .  S
C162        H174   1.082       .  S
C163        C288   1.477       .  S
C164        C297   1.489       .  S
C165        C312   1.476       .  S
C166        C273   1.476       .  S
C177        C178   1.531       .  S
C177        C181   1.534       .  S
C177       C1207   1.553       .  S
C177        C468   1.550       .  S
C178        H185   1.084       .  S
C178       C1203   1.373       .  D
C179        C180   1.554       .  S
C179       C1202   1.367       .  D
C179        C261   1.502       .  S
C180        C184   1.541       .  S
C180        C182   1.550       .  S
C180        H186   1.107       .  S
C181        H187   1.084       .  S
C181       C1206   1.360       .  D
C182       C1205   1.370       .  D
C182        C249   1.503       .  S
C183       C1201   1.550       .  S
C183        H188   1.085       .  S
C183        C184   1.376       .  D
C184        C480   1.494       .  S
C189        C190   1.529       .  S
C189        C195   1.556       .  S
C189        C705   1.539       .  S
C189        C228   1.544       .  S
C190        H197   1.087       .  S
C190        C191   1.361       .  D
C191        C192   1.557       .  S
C191        C492   1.500       .  S
C192        C196   1.541       .  S
C192        C706   1.556       .  S
C192        H198   1.110       .  S
C193        C701   1.537       .  S
C193        H199   1.085       .  S
C193        C194   1.365       .  D
C194        C704   1.559   1_545  S
C194        C501   1.503       .  S
C195        H200   1.084       .  S
C195        C196   1.380       .  D
C196        C240   1.501       .  S
C201        C202   1.536       .  S
C201        C205   1.531       .  S
C201       C1231   1.552       .  S
C201        C384   1.548       .  S
C202        H209   1.079       .  S
C202       C1227   1.363       .  D
C203        C204   1.554       .  S
C203       C1226   1.361       .  D
C203        C360   1.501       .  S
C204        C208   1.539       .  S
C204        C206   1.550       .  S
C204        H210   1.109       .  S
C205        H211   1.086       .  S
C205       C1230   1.365       .  D
C206       C1229   1.363       .  D
C206        C348   1.494       .  S
C207       C1225   1.554       .  S
C207        H212   1.083       .  S
C207        C208   1.385       .  D
C208        C369   1.507       .  S
C213        C219   1.558       .  S
C213        C217   1.526       .  S
C213        C726   1.527       .  S
C213        C333   1.553       .  S
C214        C725   1.525   1_545  S
C214        H221   1.087       .  S
C214        C215   1.364       .  D
C215        C728   1.557   1_545  S
C215        C396   1.502       .  S
C216        C220   1.539       .  S
C216        C218   1.568       .  S
C216        C727   1.565       .  S
C216        H222   1.108       .  S
C217        H223   1.084       .  S
C217        C218   1.368       .  D
C218        C405   1.512       .  S
C219        H224   1.079       .  S
C219        C220   1.374       .  D
C220        C321   1.505       .  S
C225        C226   1.406       .  A
C225        C742   1.403       .  A
C226        C227   1.402       .  A
C226        H231   1.084       .  S
C227        C228   1.413       .  A
C227        O232   1.373       .  S
C228        C741   1.420       .  A
C229        C230   1.415       .  A
C229        C740   1.419   1_545  A
C229        H233   1.081       .  S
C230        C737   1.405   1_545  A
C230        O234   1.373       .  S
O232        H236   0.992       .  S
O234        H235   0.991       .  S
C237        C238   1.409       .  A
C237        C242   1.410       .  A
C238        C239   1.404       .  A
C238        H243   1.084       .  S
C239        C240   1.409       .  A
C239        O244   1.372       .  S
C240        C241   1.411       .  A
C241        C242   1.414       .  A
C241        H245   1.083       .  S
C242        O246   1.371       .  S
O244        H248   0.992       .  S
O246        H247   0.991       .  S
C249        C254   1.405       .  A
C249       C1274   1.410       .  A
C250        C251   1.409       .  A
C250       C1273   1.411       .  A
C250        H255   1.083   1_655  S
C251       C1276   1.410       .  A
C251        O256   1.371       .  S
C252        C253   1.419       .  A
C252       C1275   1.411       .  A
C253        C254   1.410       .  A
C253        H257   1.083       .  S
C254        O258   1.372       .  S
O256        H260   0.992   1_655  S
O258        H259   0.992       .  S
C261        C266   1.416       .  A
C261       C1286   1.408       .  A
C262        C263   1.407       .  A
C262       C1285   1.416       .  A
C262        H267   1.081       .  S
C263       C1288   1.404   1_455  A
C263        O268   1.373       .  S
C264        C265   1.405       .  A
C264       C1287   1.401       .  A
C265        C266   1.412       .  A
C265        H269   1.084       .  S
C266        O270   1.371       .  S
O268        H272   0.991       .  S
O270        H271   0.992       .  S
C273        C274   1.402       .  A
C273        C278   1.406       .  A
C274        C275   1.395       .  A
C274        H279   1.084   1_554  S
C275        C276   1.407       .  A
C275        O280   1.371   1_554  S
C276        C277   1.403       .  A
C277        C278   1.394       .  A
C277        H281   1.084       .  S
C278        O282   1.373       .  S
O280        H284   0.992       .  S
O282        H283   0.992       .  S
C285        C286   1.402   1_554  A
C285        C290   1.409       .  A
C286        C287   1.396   1_556  A
C286        H291   1.084       .  S
C287        C288   1.410       .  A
C287        O292   1.372   1_554  S
C288        C289   1.400       .  A
C289        C290   1.392       .  A
C289        H293   1.084       .  S
C290        O294   1.371       .  S
O292        H296   0.992       .  S
O294        H295   0.992       .  S
C297        C298   1.404       .  A
C297        C302   1.409       .  A
C298        C299   1.399   1_554  A
C298        H303   1.084   1_554  S
C299        C300   1.409   1_556  A
C299        O304   1.371       .  S
C300        C301   1.405       .  A
C301        C302   1.400       .  A
C301        H305   1.084       .  S
C302        O306   1.373       .  S
O304        H308   0.992       .  S
O306        H307   0.992       .  S
C309        C310   1.402       .  A
C309        C314   1.407   1_554  A
C310        C311   1.397       .  A
C310        H315   1.083       .  S
C311        C312   1.409       .  A
C311        O316   1.373       .  S
C312        C313   1.398       .  A
C313        C314   1.393   1_554  A
C313        H317   1.084   1_554  S
C314        O318   1.369       .  S
O316        H320   0.992       .  S
O318        H319   0.992       .  S
C321        C322   1.412       .  A
C321        C838   1.410       .  A
C322        C323   1.417       .  A
C322        H327   1.083       .  S
C323        C836   1.411       .  A
C323        O328   1.370       .  S
C324        C325   1.407       .  A
C324        C835   1.411   1_545  A
C325        C326   1.403       .  A
C325        H329   1.084       .  S
C326        C833   1.409       .  A
C326        O330   1.373       .  S
O328        H332   0.992       .  S
O330        H331   0.992       .  S
C333        C334   1.402       .  A
C333        C850   1.424       .  A
C334        C335   1.397       .  A
C334        H339   1.075       .  S
C335        C848   1.425       .  A
C335        O340   1.372       .  S
C336        C337   1.403   1_545  A
C336        C847   1.421       .  A
C337        C338   1.413       .  A
C337        H341   1.083       .  S
C338        C845   1.424       .  A
C338        O342   1.371       .  S
O340        H344   0.991       .  S
O342        H343   0.991   1_565  S
C345        C346   1.406       .  A
C345       C1374   1.427       .  A
C346        C347   1.409       .  A
C346        H351   1.083       .  S
C347        C348   1.416       .  A
C347        O352   1.372       .  S
C348       C1373   1.394       .  A
C349        C350   1.411       .  A
C349       C1372   1.400       .  A
C349        H353   1.084       .  S
C350       C1369   1.425       .  A
C350        O354   1.372       .  S
O352        H356   0.992       .  S
O354        H355   0.992       .  S
C357        C362   1.428       .  A
C357       C1382   1.402       .  A
C358        C359   1.409   1_655  A
C358       C1381   1.401       .  A
C358        H363   1.083   1_655  S
C359       C1384   1.420   1_455  A
C359        O364   1.373       .  S
C360        C361   1.395       .  A
C360       C1383   1.421       .  A
C361        C362   1.404       .  A
C361        H365   1.084       .  S
C362        O366   1.372       .  S
O364        H368   0.992       .  S
O366        H367   0.992       .  S
C369        C370   1.417       .  A
C369        C374   1.408       .  A
C370        C371   1.415       .  A
C370        H375   1.082       .  S
C371        C372   1.408       .  A
C371        O376   1.371       .  S
C372        C373   1.410       .  A
C373        C374   1.398       .  A
C373        H377   1.081       .  S
C374        O378   1.373       .  S
O376        H380   0.992       .  S
O378        H379   0.992       .  S
C381        C382   1.404       .  A
C381        C386   1.403       .  A
C382        C383   1.403       .  A
C382        H387   1.084       .  S
C383        C384   1.415       .  A
C383        O388   1.372       .  S
C384        C385   1.421       .  A
C385        C386   1.407       .  A
C385        H389   1.076       .  S
C386        O390   1.372       .  S
O388        H392   0.992       .  S
O390        H391   0.992       .  S
C393        C394   1.407       .  A
C393        C398   1.408       .  A
C394        C395   1.415       .  A
C394        H399   1.083       .  S
C395        C396   1.415       .  A
C395        O400   1.371       .  S
C396        C397   1.407       .  A
C397        C398   1.400       .  A
C397        H401   1.084       .  S
C398        O402   1.373       .  S
O400        H404   0.992       .  S
O402        H403   0.992       .  S
C405        C406   1.401       .  A
C405        C410   1.426       .  A
C406        C407   1.407       .  A
C406        H411   1.082       .  S
C407        C408   1.420       .  A
C407        O412   1.372       .  S
C408        C409   1.401       .  A
C409        C410   1.407       .  A
C409        H413   1.084       .  S
C410        O414   1.371       .  S
O412        H416   0.992       .  S
O414        H415   0.991       .  S
C417        C418   1.403       .  A
C417        C422   1.403       .  A
C418        C419   1.396       .  A
C418        H423   1.080       .  S
C419        C420   1.405       .  A
C419        O424   1.373       .  S
C420        C421   1.405       .  A
C421        C422   1.397       .  A
C421        H425   1.084       .  S
C422        O426   1.369       .  S
O424        H428   0.992       .  S
O426        H427   0.992       .  S
C429        C430   1.398       .  A
C429        C434   1.407       .  A
C430        C431   1.391       .  A
C430        H435   1.084       .  S
C431        C432   1.408       .  A
C431        O436   1.372       .  S
C432        C433   1.401       .  A
C433        C434   1.395       .  A
C433        H437   1.084       .  S
C434        O438   1.372       .  S
O436        H440   0.992       .  S
O438        H439   0.992       .  S
C441        C442   1.400       .  A
C441        C446   1.405       .  A
C442        C443   1.393       .  A
C442        H447   1.084       .  S
C443        C444   1.409       .  A
C443        O448   1.372       .  S
C444        C445   1.401       .  A
C445        C446   1.392       .  A
C445        H449   1.084       .  S
C446        O450   1.372       .  S
O448        H452   0.992       .  S
O450        H451   0.991       .  S
C453        C454   1.402       .  A
C453        C458   1.406       .  A
C454        C455   1.397       .  A
C454        H459   1.084       .  S
C455        C456   1.407       .  A
C455        O460   1.372       .  S
C456        C457   1.397       .  A
C457        C458   1.391       .  A
C457        H461   1.084       .  S
C458        O462   1.371       .  S
O460        H464   0.992       .  S
O462        H463   0.992       .  S
C465        C466   1.409       .  A
C465        C470   1.404       .  A
C466        C467   1.403       .  A
C466        H471   1.084       .  S
C467        C468   1.414       .  A
C467        O472   1.371       .  S
C468        C469   1.422       .  A
C469        C470   1.410       .  A
C469        H473   1.080       .  S
C470        O474   1.372       .  S
O472        H476   0.991       .  S
O474        H475   0.992       .  S
C477        C478   1.403       .  A
C477        C482   1.415       .  A
C478        C479   1.410       .  A
C478        H483   1.083       .  S
C479        C480   1.414       .  A
C479        O484   1.371       .  S
C480        C481   1.402       .  A
C481        C482   1.399       .  A
C481        H485   1.084       .  S
C482        O486   1.373       .  S
O484        H488   0.992       .  S
O486        H487   0.992       .  S
C489        C490   1.408       .  A
C489        C494   1.429       .  A
C490        C491   1.414       .  A
C490        H495   1.083       .  S
C491        C492   1.419       .  A
C491        O496   1.372       .  S
C492        C493   1.393       .  A
C493        C494   1.405       .  A
C493        H497   1.084       .  S
C494        O498   1.372       .  S
O496        H500   0.992       .  S
O498        H499   0.991       .  S
C501        C502   1.394       .  A
C501        C506   1.419       .  A
C502        C503   1.405       .  A
C502        H507   1.084       .  S
C503        C504   1.428       .  A
C503        O508   1.370       .  S
C504        C505   1.406       .  A
C505        C506   1.414       .  A
C505        H509   1.083       .  S
C506        O510   1.372       .  S
O508        H512   0.990       .  S
O510        H511   0.992       .  S
O513        C524   1.310       .  A
O513       Eu549   2.567       .  S
O514        C525   1.305       .  A
O514       Eu548   2.539       .  S
O515        C526   1.286       .  A
O515       Eu521   2.431       .  S
O516        C527   1.287       .  A
O516       Eu521   2.443       .  S
O517        C527   1.283       .  A
O517       Eu551   2.425       .  S
O518        C526   1.285       .  A
O518       Eu550   2.426       .  S
O519        C525   1.287       .  A
O519       Eu521   2.435       .  S
O520        C524   1.283       .  A
O520       Eu521   2.419       .  S
Eu521       O531   2.344       .  S
Eu521       O523   2.343       .  S
Eu521       O522   2.339       .  S
Eu521       O529   2.348       .  S
O522       Eu551   2.344       .  S
O522       Eu548   2.375       .  S
O523       Eu549   2.370       .  S
O523       Eu550   2.342       .  S
C524       C1016   1.520       .  S
C525        C905   1.492       .  S
C526        C929   1.460       .  S
C527        C944   1.460       .  S
H528        O529   0.965       .  S
O529       Eu550   2.349       .  S
O529       Eu548   2.373       .  S
H530        O531   0.967       .  S
O531       Eu549   2.378       .  S
O531       Eu551   2.345       .  S
O532        C555   1.304       .  A
O532       Eu548   2.528       .  S
O533        C556   1.309       .  A
O533       Eu549   2.558       .  S
O534        C557   1.288       .  A
O534       Eu550   2.432       .  S
O535        C558   1.288       .  A
O535       Eu551   2.435       .  S
O536        C559   1.287       .  A
O536       Eu551   2.436       .  S
O537        C560   1.287       .  A
O537       Eu550   2.433       .  S
O538        C561   1.286       .  A
O538       Eu552   2.437       .  S
O539        C562   1.285       .  A
O539       Eu552   2.432       .  S
O540        C561   1.286       .  A
O540       Eu550   2.435       .  S
O541        C562   1.284       .  A
O541       Eu551   2.425       .  S
O542        C557   1.305       .  A
O542       Eu548   2.543       .  S
O543        C560   1.304       .  A
O543       Eu549   2.532       .  S
O544        C559   1.304       .  A
O544       Eu549   2.528       .  S
O545        C558   1.301       .  A
O545       Eu548   2.514       .  S
O546        C555   1.288       .  A
O546       Eu552   2.439       .  S
O547        C556   1.285       .  A
O547       Eu552   2.423       .  S
Eu548       O566   2.387       .  S
Eu548       O554   2.369       .  S
Eu549       O553   2.370       .  S
Eu549       O564   2.392       .  S
Eu550       O564   2.355       .  S
Eu550       O554   2.337       .  S
Eu551       O553   2.342       .  S
Eu551       O566   2.346       .  S
Eu552       O553   2.341       .  S
Eu552       O564   2.356       .  S
Eu552       O566   2.352       .  S
Eu552       O554   2.342       .  S
C555        C920   1.506       .  S
C556       C1001   1.514       .  S
C557        C884   1.504       .  S
C558        C893   1.489       .  S
C559        C977   1.492       .  S
C560        C989   1.497       .  S
C561        C965   1.458       .  S
C562        C956   1.455       .  S
H563        O564   0.966       .  S
H565        O566   0.966       .  S
N567        H599   1.039       .  S
N567        C571   1.348       .  A
N568       C1599   1.344   1_455  A
N568        C576   1.346       .  A
N569        H600   1.042       .  S
N569        C573   1.348       .  A
N570       C1601   1.344   1_455  A
N570        C578   1.343       .  A
C571        C579   1.387       .  A
C571        C587   1.407       .  A
C572        C588   1.409       .  A
C572        C580   1.387       .  A
C573        C581   1.386       .  A
C573        C590   1.403       .  A
C574        C589   1.404       .  A
C574        C582   1.387       .  A
C575       N1592   1.346       .  A
C575        C587   1.407       .  A
C575        C583   1.387       .  A
C576        C590   1.403       .  A
C576        C584   1.386       .  A
C577       N1594   1.344       .  A
C577        C585   1.387       .  A
C577        C588   1.402       .  A
C578        C586   1.386       .  A
C578        C589   1.402       .  A
C579        H591   1.083       .  S
C580        H592   1.082       .  S
C581        H593   1.083       .  S
C582        H594   1.082       .  S
C583       C1608   1.372       .  A
C583        H595   1.082       .  S
C584       C1607   1.372   1_455  A
C584        H596   1.082       .  S
C585       C1610   1.375       .  A
C585        H597   1.083       .  S
C586       C1609   1.375   1_455  A
C586        H598   1.082       .  S
C587        C968   1.470       .  S
C588        C932   1.478       .  S
C589        C941   1.467       .  S
C590        C953   1.471       .  S
O601        C612   1.310       .  A
O602        C613   1.304       .  A
O602       Eu636   2.528       .  S
O603        C614   1.288       .  A
O603      Eu1633   2.446   1_455  S
O604        C615   1.284       .  A
O604       Eu609   2.418       .  S
O605        C615   1.283       .  A
O605       Eu639   2.412   1_565  S
O606        C614   1.283       .  A
O606       Eu638   2.421   1_565  S
O607        C613   1.287       .  A
O607       Eu609   2.436   1_554  S
O608        C612   1.282       .  A
O608       Eu609   2.407       .  S
Eu609      O1627   2.446       .  S
Eu609       O619   2.354       .  S
Eu609      O1635   2.344       .  S
Eu609       O610   2.342   1_556  S
Eu609      O1641   2.330   1_556  S
O610       Eu639   2.355   1_564  S
O610       Eu636   2.364       .  S
O611      Eu1633   2.348   1_455  S
O611      Eu1149   2.373   1_465  S
O611       Eu638   2.342   1_565  S
C612        C869   1.512       .  S
C613        C764   1.506       .  S
C614        C788   1.460   1_556  S
C615        C797   1.447       .  S
H616        O617   0.967       .  S
O617      Eu1633   2.342   1_454  S
O617       Eu638   2.338   1_564  S
O617      Eu1660   2.358   1_455  S
H618        O619   0.968       .  S
O619       Eu639   2.357   1_565  S
O620        C643   1.303       .  A
O621        C644   1.309       .  A
O621       Eu637   2.554       .  S
O622        C645   1.284       .  A
O622       Eu638   2.417   1_564  S
O623        C646   1.288       .  A
O623       Eu639   2.439   1_564  S
O624        C647   1.291       .  A
O625        C648   1.281       .  A
O626        C649   1.285       .  A
O626      Eu1664   2.431   1_455  S
O627        C650   1.286       .  A
O627       Eu640   2.436       .  S
O628        C649   1.283       .  A
O629        C650   1.285       .  A
O630        C645   1.304       .  A
O630      Eu1660   2.538   1_455  S
O631        C648   1.307       .  A
O631      Eu1661   2.555   1_455  S
O632        C647   1.302       .  A
O632       Eu637   2.522       .  S
O633        C646   1.302       .  A
O633       Eu636   2.525       .  S
O634        C643   1.287       .  A
O634       Eu640   2.442       .  S
O635        C644   1.289       .  A
O635       Eu640   2.443   1_556  S
Eu636      O1654   2.526       .  S
Eu636      O1641   2.362       .  S
Eu636      O1154   2.370   1_565  S
Eu637      O1655   2.544       .  S
Eu637      O1123   2.376       .  S
Eu637       O641   2.384       .  S
Eu637      O1676   2.381       .  S
Eu640      O1650   2.430       .  S
Eu640       O641   2.352   1_554  S
Eu640      O1676   2.356   1_554  S
Eu640       O654   2.349       .  S
Eu640      O1666   2.340       .  S
O642      Eu1148   2.364   1_455  S
O642      Eu1664   2.346   1_455  S
C643        C776   1.489       .  S
C644        C857   1.515       .  S
C645        C737   1.496       .  S
C646        C749   1.492       .  S
C647        C836   1.497       .  S
C648        C848   1.515       .  S
C649        C821   1.456       .  S
C650        C812   1.459       .  S
H651        O652   0.963       .  S
O652      Eu1661   2.379   1_455  S
O652      Eu1664   2.358   1_456  S
H653        O654   0.966       .  S
N655        H687   1.042       .  S
N655        C660   1.345       .  A
N655        C659   1.345       .  A
N656        C663   1.340       .  A
N656        C664   1.342       .  A
N657        H688   1.043       .  S
N657        C662   1.345       .  A
N657        C661   1.348       .  A
N658        C665   1.346       .  A
N658        C666   1.344       .  A
C659        C667   1.387   1_554  A
C659        C675   1.402       .  A
C660        C676   1.402       .  A
C660        C668   1.388   1_554  A
C661        C669   1.385   1_554  A
C661        C678   1.402       .  A
C662        C677   1.404       .  A
C662        C670   1.389   1_554  A
C663        C675   1.398       .  A
C663        C671   1.387       .  A
C664        C678   1.397       .  A
C664        C672   1.385       .  A
C665        C673   1.386       .  A
C665        C676   1.405       .  A
C666        C674   1.387       .  A
C666        C677   1.406       .  A
C667        C668   1.374       .  A
C667        H679   1.083       .  S
C668        H680   1.083       .  S
C669        C670   1.373       .  A
C669        H681   1.082       .  S
C670        H682   1.082       .  S
C671        C672   1.374       .  A
C671        H683   1.082       .  S
C672        H684   1.082       .  S
C673        C674   1.376       .  A
C673        H685   1.082       .  S
C674        H686   1.082       .  S
C675        C800   1.461       .  S
C676        C809   1.466       .  S
C677        C824   1.470       .  S
C678        C785   1.473       .  S
C689        C690   1.528       .  S
C689       C1719   1.553       .  S
C689        C693   1.537       .  S
C689        C980   1.551       .  S
C690        H697   1.086       .  S
C690       C1715   1.367       .  D
C691        C692   1.563       .  S
C691       C1714   1.368       .  D
C691        C773   1.516       .  S
C692        C696   1.542       .  S
C692        C694   1.559       .  S
C692        H698   1.105       .  S
C693        H699   1.083       .  S
C693       C1718   1.365       .  D
C694       C1717   1.366       .  D
C694        C761   1.507       .  S
C695       C1713   1.554       .  S
C695        H700   1.085       .  S
C695        C696   1.379       .  D
C696        C992   1.504       .  S
C701        C702   1.529   1_545  S
C701        C707   1.554       .  S
C701        C740   1.546   1_545  S
C702        H709   1.086       .  S
C702        C703   1.364       .  D
C703        C704   1.560       .  S
C703       C1004   1.507       .  S
C704        C708   1.539       .  S
C704        H710   1.110       .  S
C705        H711   1.084       .  S
C705        C706   1.362       .  D
C706       C1013   1.502       .  S
C707        H712   1.084       .  S
C707        C708   1.377   1_545  D
C708        C752   1.498       .  S
C713        C714   1.536       .  S
C713       C1743   1.556       .  S
C713        C717   1.526       .  S
C713        C896   1.551       .  S
C714        H721   1.080       .  S
C714       C1739   1.366       .  D
C715        C716   1.562       .  S
C715       C1738   1.366       .  D
C715        C872   1.508       .  S
C716        C720   1.545       .  S
C716        C718   1.561       .  S
C716        H722   1.110       .  S
C717        H723   1.087       .  S
C717       C1742   1.363       .  D
C718       C1741   1.366       .  D
C718        C860   1.512       .  S
C719       C1737   1.553       .  S
C719        H724   1.084       .  S
C719        C720   1.380       .  D
C720        C881   1.511       .  S
C725        C731   1.557       .  S
C725        C729   1.530       .  S
C725        C845   1.543       .  S
C726        H733   1.086       .  S
C726        C727   1.369       .  D
C727        C908   1.515       .  S
C728        C732   1.539       .  S
C728        C730   1.561       .  S
C728        H734   1.110       .  S
C729        H735   1.085       .  S
C729        C730   1.367       .  D
C730        C917   1.500       .  S
C731        H736   1.081   1_565  S
C731        C732   1.374       .  D
C732        C833   1.501   1_565  S
C737        C738   1.409       .  A
C738        C739   1.403       .  A
C738        H743   1.084       .  S
C739        C740   1.414       .  A
C739        O744   1.373       .  S
C741        C742   1.409       .  A
C741        H745   1.080       .  S
C742        O746   1.372       .  S
O744        H748   0.992       .  S
O746        H747   0.990       .  S
C749        C750   1.407       .  A
C749        C754   1.411   1_565  A
C750        C751   1.401       .  A
C750        H755   1.084       .  S
C751        C752   1.408       .  A
C751        O756   1.372       .  S
C752        C753   1.410   1_565  A
C753        C754   1.414       .  A
C753        H757   1.083       .  S
C754        O758   1.371       .  S
O756        H760   0.992       .  S
O758        H759   0.991       .  S
C761       C1786   1.414       .  A
C761        C766   1.405       .  A
C762       C1785   1.412   1_455  A
C762        C763   1.408   1_455  A
C762        H767   1.083       .  S
C763       C1788   1.410       .  A
C763        O768   1.371   1_655  S
C764       C1787   1.409       .  A
C764        C765   1.416       .  A
C765        C766   1.408       .  A
C765        H769   1.082       .  S
C766        O770   1.371       .  S
O768        H772   0.992       .  S
O770        H771   0.992       .  S
C773       C1798   1.413       .  A
C773        C778   1.417       .  A
C774       C1797   1.411       .  A
C774        C775   1.403       .  A
C774        H779   1.083       .  S
C775       C1800   1.405   1_455  A
C775        O780   1.372       .  S
C776       C1799   1.406       .  A
C776        C777   1.405       .  A
C777        C778   1.415       .  A
C777        H781   1.083       .  S
C778        O782   1.370       .  S
O780        H784   0.991       .  S
O782        H783   0.992       .  S
C785        C786   1.403   1_554  A
C785        C790   1.405       .  A
C786        C787   1.394       .  A
C786        H791   1.084       .  S
C787        C788   1.408   1_556  A
C787        O792   1.372       .  S
C788        C789   1.401       .  A
C789        C790   1.392       .  A
C789        H793   1.084       .  S
C790        O794   1.373       .  S
O792        H796   0.992       .  S
O794        H795   0.992       .  S
C797        C798   1.400       .  A
C797        C802   1.405   1_556  A
C798        C799   1.389       .  A
C798        H803   1.084       .  S
C799        C800   1.406   1_556  A
C799        O804   1.372       .  S
C800        C801   1.398       .  A
C801        C802   1.385       .  A
C801        H805   1.084       .  S
C802        O806   1.372       .  S
O804        H808   0.991       .  S
O806        H807   0.992       .  S
C809        C810   1.396   1_554  A
C809        C814   1.406       .  A
C810        C811   1.388       .  A
C810        H815   1.084       .  S
C811        C812   1.405   1_556  A
C811        O816   1.368       .  S
C812        C813   1.402       .  A
C813        C814   1.396       .  A
C813        H817   1.084       .  S
C814        O818   1.372       .  S
O816        H820   0.992       .  S
O818        H819   0.992       .  S
C821        C822   1.401       .  A
C821        C826   1.406   1_554  A
C822        C823   1.393       .  A
C822        H827   1.082       .  S
C823        C824   1.407       .  A
C823        O828   1.374       .  S
C824        C825   1.399   1_554  A
C825        C826   1.388       .  A
C825        H829   1.084       .  S
C826        O830   1.372       .  S
O828        H832   0.992       .  S
O830        H831   0.992       .  S
C833        C834   1.410   1_545  A
C834        C835   1.415       .  A
C834        H839   1.083       .  S
C835        O840   1.371       .  S
C836        C837   1.403       .  A
C837        C838   1.400       .  A
C837        H841   1.076       .  S
C838        O842   1.373       .  S
O840        H844   0.992       .  S
O842        H843   0.992       .  S
C845        C846   1.401   1_565  A
C846        C847   1.394       .  A
C846        H851   1.078       .  S
C847        O852   1.370       .  S
C848        C849   1.406       .  A
C849        C850   1.418       .  A
C849        H853   1.083       .  S
C850        O854   1.371       .  S
O852        H856   0.992       .  S
O854        H855   0.992       .  S
C857        C858   1.406       .  A
C857       C1886   1.426       .  A
C858        C859   1.412       .  A
C858        H863   1.083       .  S
C859        C860   1.421       .  A
C859        O864   1.372       .  S
C860       C1885   1.400       .  A
C861       C1884   1.396   1_655  A
C861        C862   1.408       .  A
C861        H865   1.084       .  S
C862       C1881   1.428       .  A
C862        O866   1.372       .  S
O864        H868   0.992       .  S
O866        H867   0.992       .  S
C869       C1894   1.403       .  A
C869        C874   1.429       .  A
C870       C1893   1.401   1_455  A
C870        C871   1.413       .  A
C870        H875   1.083       .  S
C871       C1896   1.424   1_455  A
C871        O876   1.373       .  S
C872       C1895   1.421       .  A
C872        C873   1.397       .  A
C873        C874   1.407       .  A
C873        H877   1.084       .  S
C874        O878   1.372       .  S
O876        H880   0.992       .  S
O878        H879   0.992       .  S
C881        C882   1.414       .  A
C881        C886   1.411       .  A
C882        C883   1.418       .  A
C882        H887   1.083       .  S
C883        C884   1.411       .  A
C883        O888   1.371       .  S
C884        C885   1.410       .  A
C885        C886   1.403       .  A
C885        H889   1.084       .  S
C886        O890   1.373       .  S
O888        H892   0.992       .  S
O890        H891   0.992       .  S
C893        C894   1.405       .  A
C893        C898   1.404       .  A
C894        C895   1.403       .  A
C894        H899   1.084       .  S
C895        C896   1.415       .  A
C895        O900   1.372       .  S
C896        C897   1.421       .  A
C897        C898   1.410       .  A
C897        H901   1.078       .  S
C898        O902   1.372       .  S
O900        H904   0.992       .  S
O902        H903   0.992       .  S
C905        C906   1.409       .  A
C905        C910   1.407       .  A
C906        C907   1.419       .  A
C906        H911   1.083       .  S
C907        C908   1.417       .  A
C907        O912   1.371       .  S
C908        C909   1.410       .  A
C909        C910   1.403       .  A
C909        H913   1.083       .  S
C910        O914   1.372       .  S
O912        H916   0.992       .  S
O914        H915   0.992       .  S
C917        C918   1.396       .  A
C917        C922   1.419       .  A
C918        C919   1.404       .  A
C918        H923   1.083       .  S
C919        C920   1.423       .  A
C919        O924   1.372       .  S
C920        C921   1.406       .  A
C921        C922   1.410       .  A
C921        H925   1.083       .  S
C922        O926   1.372       .  S
O924        H928   0.992       .  S
O926        H927   0.992       .  S
C929        C930   1.400       .  A
C929        C934   1.407       .  A
C930        C931   1.395       .  A
C930        H935   1.084       .  S
C931        C932   1.410       .  A
C931        O936   1.373       .  S
C932        C933   1.401       .  A
C933        C934   1.392       .  A
C933        H937   1.084       .  S
C934        O938   1.371       .  S
O936        H940   0.992       .  S
O938        H939   0.992       .  S
C941        C942   1.398       .  A
C941        C946   1.405       .  A
C942        C943   1.390       .  A
C942        H947   1.084       .  S
C943        C944   1.407       .  A
C943        O948   1.372       .  S
C944        C945   1.403       .  A
C945        C946   1.397       .  A
C945        H949   1.084       .  S
C946        O950   1.372       .  S
O948        H952   0.991       .  S
O950        H951   0.992       .  S
C953        C954   1.401       .  A
C953        C958   1.406       .  A
C954        C955   1.391       .  A
C954        H959   1.084       .  S
C955        C956   1.405       .  A
C955        O960   1.372       .  S
C956        C957   1.402       .  A
C957        C958   1.395       .  A
C957        H961   1.084       .  S
C958        O962   1.373       .  S
O960        H964   0.992       .  S
O962        H963   0.992       .  S
C965        C966   1.403       .  A
C965        C970   1.404       .  A
C966        C967   1.394       .  A
C966        H971   1.084       .  S
C967        C968   1.402       .  A
C967        O972   1.372       .  S
C968        C969   1.402       .  A
C969        C970   1.395       .  A
C969        H973   1.084       .  S
C970        O974   1.371       .  S
O972        H976   0.991       .  S
O974        H975   0.992       .  S
C977        C978   1.407       .  A
C977        C982   1.405       .  A
C978        C979   1.405       .  A
C978        H983   1.084       .  S
C979        C980   1.415       .  A
C979        O984   1.372       .  S
C980        C981   1.421       .  A
C981        C982   1.410       .  A
C981        H985   1.078       .  S
C982        O986   1.372       .  S
O984        H988   0.992       .  S
O986        H987   0.992       .  S
C989        C990   1.405       .  A
C989        C994   1.417       .  A
C990        C991   1.414       .  A
C990        H995   1.083       .  S
C991        C992   1.417       .  A
C991        O996   1.371       .  S
C992        C993   1.403       .  A
C993        C994   1.402       .  A
C993        H997   1.084       .  S
C994        O998   1.373       .  S
O996       H1000   0.992       .  S
O998        H999   0.992       .  S
C1001      C1002   1.405       .  A
C1001      C1006   1.427       .  A
C1002      C1003   1.413       .  A
C1002      H1007   1.083       .  S
C1003      C1004   1.422       .  A
C1003      O1008   1.372       .  S
C1004      C1005   1.396       .  A
C1005      C1006   1.406       .  A
C1005      H1009   1.084       .  S
C1006      O1010   1.371       .  S
O1008      H1012   0.992       .  S
O1010      H1011   0.991       .  S
C1013      C1014   1.393       .  A
C1013      C1018   1.417       .  A
C1014      C1015   1.407       .  A
C1014      H1019   1.084       .  S
C1015      C1016   1.432       .  A
C1015      O1020   1.374       .  S
C1016      C1017   1.408       .  A
C1017      C1018   1.417       .  A
C1017      H1021   1.083       .  S
C1018      O1022   1.372       .  S
O1020      H1024   0.991       .  S
O1022      H1023   0.992       .  S
O1025      C1036   1.308       .  A
O1025     Eu1061   2.549       .  S
O1026      C1037   1.304       .  A
O1026     Eu1060   2.525       .  S
O1027      C1038   1.287       .  A
O1027     Eu1033   2.447       .  S
O1028      C1039   1.284       .  A
O1028     Eu1033   2.427       .  S
O1029      C1039   1.285       .  A
O1029     Eu1063   2.430       .  S
O1030      C1038   1.284       .  A
O1030     Eu1062   2.426       .  S
O1031      C1037   1.286       .  A
O1031     Eu1033   2.422       .  S
O1032      C1036   1.283       .  A
O1032     Eu1033   2.414       .  S
Eu1033     O1043   2.352       .  S
Eu1033     O1035   2.327       .  S
Eu1033     O1034   2.342       .  S
Eu1033     O1041   2.352       .  S
O1034     Eu1063   2.337       .  S
O1034     Eu1060   2.372       .  S
O1035     Eu1061   2.369       .  S
O1035     Eu1062   2.332       .  S
C1036      C1528   1.511       .  S
C1037      C1417   1.494       .  S
C1038      C1441   1.463       .  S
C1039      C1456   1.452       .  S
H1040      O1041   0.966       .  S
O1041     Eu1062   2.341       .  S
O1041     Eu1060   2.397       .  S
H1042      O1043   0.964       .  S
O1043     Eu1061   2.384       .  S
O1043     Eu1063   2.346       .  S
O1044      C1067   1.306       .  A
O1044     Eu1060   2.544       .  S
O1045      C1068   1.310       .  A
O1045     Eu1061   2.559       .  S
O1046      C1069   1.287       .  A
O1046     Eu1062   2.430       .  S
O1047      C1070   1.286       .  A
O1047     Eu1063   2.425       .  S
O1048      C1071   1.289       .  A
O1048     Eu1063   2.444       .  S
O1049      C1072   1.287       .  A
O1049     Eu1062   2.431       .  S
O1050      C1073   1.286       .  A
O1050     Eu1064   2.436       .  S
O1051      C1074   1.286       .  A
O1051     Eu1064   2.433       .  S
O1052      C1073   1.280       .  A
O1052     Eu1062   2.403       .  S
O1053      C1074   1.285       .  A
O1053     Eu1063   2.431       .  S
O1054      C1069   1.304       .  A
O1054     Eu1060   2.535       .  S
O1055      C1072   1.306       .  A
O1055     Eu1061   2.543       .  S
O1056      C1071   1.304       .  A
O1056     Eu1061   2.533       .  S
O1057      C1070   1.305       .  A
O1057     Eu1060   2.535       .  S
O1058      C1067   1.286       .  A
O1058     Eu1064   2.434       .  S
O1059      C1068   1.278       .  A
O1059     Eu1064   2.386       .  S
Eu1060     O1078   2.370       .  S
Eu1060     O1066   2.369       .  S
Eu1061     O1065   2.368       .  S
Eu1061     O1076   2.377       .  S
Eu1062     O1076   2.351       .  S
Eu1062     O1066   2.352       .  S
Eu1063     O1065   2.336       .  S
Eu1063     O1078   2.352       .  S
Eu1064     O1065   2.346       .  S
Eu1064     O1076   2.351       .  S
Eu1064     O1078   2.335       .  S
Eu1064     O1066   2.336       .  S
C1067      C1432   1.516       .  S
C1068      C1513   1.505       .  S
C1069      C1396   1.496       .  S
C1070      C1405   1.490       .  S
C1071      C1489   1.501       .  S
C1072      C1501   1.500       .  S
C1073      C1477   1.445       .  S
C1074      C1468   1.461       .  S
H1075      O1076   0.966       .  S
H1077      O1078   0.964       .  S
N1079      H1111   1.042       .  S
N1079      C1596   1.349       .  A
N1079      C1083   1.347       .  A
N1080      C1088   1.345       .  A
N1081      H1112   1.042       .  S
N1081      C1598   1.346       .  A
N1081      C1085   1.348       .  A
N1082      C1090   1.347       .  A
C1083      C1091   1.388       .  A
C1083      C1099   1.406       .  A
C1084      N1591   1.350   1_545  A
C1084      C1100   1.409       .  A
C1084      C1092   1.388       .  A
C1085      C1093   1.387       .  A
C1085      C1102   1.406       .  A
C1086      N1593   1.345   1_545  A
C1086      C1101   1.403       .  A
C1086      C1094   1.387       .  A
C1087      C1099   1.399       .  A
C1087      C1095   1.387       .  A
C1088      C1102   1.404       .  A
C1088      C1096   1.386       .  A
C1089      C1097   1.386       .  A
C1089      C1100   1.403       .  A
C1090      C1098   1.386       .  A
C1090      C1101   1.406       .  A
C1091      C1604   1.373       .  A
C1091      H1103   1.082       .  S
C1092      C1603   1.373   1_545  A
C1092      H1104   1.082       .  S
C1093      C1606   1.374       .  A
C1093      H1105   1.082       .  S
C1094      C1605   1.375   1_545  A
C1094      H1106   1.083       .  S
C1095      H1107   1.083       .  S
C1096      H1108   1.082       .  S
C1097      H1109   1.082       .  S
C1098      H1110   1.082       .  S
C1099      C1480   1.463       .  S
C1100      C1444   1.475       .  S
C1101      C1453   1.466       .  S
C1102      C1465   1.475       .  S
O1113      C1124   1.307       .  A
O1113     Eu1661   2.545       .  S
O1114      C1125   1.304       .  A
O1114     Eu1148   2.533       .  S
O1115      C1126   1.288       .  A
O1116      C1127   1.285       .  A
O1116     Eu1121   2.430   1_554  S
O1117      C1127   1.282       .  A
O1117     Eu1151   2.409   1_554  S
O1118      C1126   1.282   1_556  A
O1118     Eu1150   2.414       .  S
O1119      C1125   1.284       .  A
O1119     Eu1121   2.414   1_554  S
O1120      C1124   1.284       .  A
O1120     Eu1121   2.412       .  S
Eu1121     O1131   2.356       .  S
Eu1121     O1122   2.332   1_556  S
O1122     Eu1151   2.338   1_554  S
O1122     Eu1148   2.359       .  S
O1123     Eu1150   2.343       .  S
C1124      C1381   1.503       .  S
C1125      C1276   1.503       .  S
C1126      C1300   1.457       .  S
C1127      C1309   1.455       .  S
H1128      O1129   0.967       .  S
O1129     Eu1150   2.349   1_554  S
H1130      O1131   0.965       .  S
O1131     Eu1661   2.385       .  S
O1131     Eu1151   2.353       .  S
O1132      C1155   1.302       .  A
O1132     Eu1660   2.523   1_545  S
O1133      C1156   1.308       .  A
O1133     Eu1149   2.549       .  S
O1134      C1157   1.285       .  A
O1134     Eu1150   2.420   1_554  S
O1135      C1158   1.288       .  A
O1135     Eu1151   2.439   1_554  S
O1136      C1159   1.290       .  A
O1136     Eu1663   2.446       .  S
O1137      C1160   1.281       .  A
O1137     Eu1662   2.405       .  S
O1138      C1161   1.286       .  A
O1139      C1162   1.288       .  A
O1139     Eu1152   2.443       .  S
O1140      C1161   1.287       .  A
O1140     Eu1662   2.440   1_554  S
O1141      C1162   1.286       .  A
O1141     Eu1663   2.440   1_554  S
O1142      C1157   1.303       .  A
O1143      C1160   1.306       .  A
O1144      C1159   1.303       .  A
O1144     Eu1149   2.525       .  S
O1145      C1158   1.300       .  A
O1145     Eu1148   2.510       .  S
O1146      C1155   1.288       .  A
O1146     Eu1152   2.445       .  S
O1147      C1156   1.289       .  A
O1147     Eu1152   2.442   1_556  S
Eu1148     O1644   2.520       .  S
Eu1148     O1678   2.374       .  S
Eu1149     O1625   2.560   1_545  S
Eu1149     O1643   2.384   1_545  S
Eu1149     O1153   2.385       .  S
Eu1150     O1649   2.427       .  S
Eu1150     O1652   2.436   1_556  S
Eu1150     O1676   2.339       .  S
Eu1150     O1666   2.338   1_556  S
Eu1151     O1648   2.444       .  S
Eu1151     O1653   2.425   1_556  S
Eu1151     O1665   2.345       .  S
Eu1151     O1678   2.349   1_556  S
Eu1152     O1153   2.353   1_554  S
Eu1152     O1166   2.349       .  S
O1153     Eu1663   2.343       .  S
O1154     Eu1662   2.339   1_554  S
C1155      C1288   1.487       .  S
C1156      C1369   1.512       .  S
C1157      C1249   1.490       .  S
C1158      C1261   1.485       .  S
C1159      C1348   1.498       .  S
C1160      C1360   1.511       .  S
C1161      C1333   1.466       .  S
C1162      C1324   1.469       .  S
H1163      O1164   0.965       .  S
O1164     Eu1662   2.339       .  S
H1165      O1166   0.965       .  S
O1166     Eu1660   2.384   1_545  S
O1166     Eu1663   2.360   1_554  S
N1167      H1199   1.043       .  S
N1167      C1172   1.350       .  A
N1167      C1171   1.349       .  A
N1168      C1175   1.342       .  A
N1168      C1176   1.344       .  A
N1169      H1200   1.043       .  S
N1169      C1174   1.346       .  A
N1169      C1173   1.346       .  A
N1170      C1177   1.344       .  A
N1170      C1178   1.346       .  A
C1171      C1179   1.388       .  A
C1171      C1187   1.409       .  A
C1172      C1188   1.410       .  A
C1172      C1180   1.387       .  A
C1173      C1181   1.387       .  A
C1173      C1190   1.401       .  A
C1174      C1189   1.402       .  A
C1174      C1182   1.387       .  A
C1175      C1187   1.403       .  A
C1175      C1183   1.388       .  A
C1176      C1190   1.399       .  A
C1176      C1184   1.385       .  A
C1177      C1185   1.387       .  A
C1177      C1188   1.406       .  A
C1178      C1186   1.386       .  A
C1178      C1189   1.406       .  A
C1179      C1180   1.373       .  A
C1179      H1191   1.082       .  S
C1180      H1192   1.082   1_554  S
C1181      C1182   1.370       .  A
C1181      H1193   1.082   1_554  S
C1182      H1194   1.082   1_554  S
C1183      C1184   1.377       .  A
C1183      H1195   1.082       .  S
C1184      H1196   1.083       .  S
C1185      C1186   1.377       .  A
C1185      H1197   1.082       .  S
C1186      H1198   1.082       .  S
C1187      C1312   1.471       .  S
C1188      C1321   1.481       .  S
C1189      C1336   1.475       .  S
C1190      C1297   1.467       .  S
C1201      C1202   1.522       .  S
C1201      C1205   1.542       .  S
C1201      C1492   1.551       .  S
C1202      H1209   1.086       .  S
C1203      C1204   1.562   1_455  S
C1203      C1285   1.523       .  S
C1204      C1208   1.542       .  S
C1204      C1206   1.549   1_655  S
C1204      H1210   1.104       .  S
C1205      H1211   1.084       .  S
C1206      C1273   1.492   1_455  S
C1207      H1212   1.085       .  S
C1207      C1208   1.379   1_455  D
C1208      C1504   1.502       .  S
C1213      C1214   1.525       .  S
C1213      C1219   1.554       .  S
C1213      C1729   1.539       .  S
C1213      C1252   1.542       .  S
C1214      H1221   1.087       .  S
C1214      C1215   1.360       .  D
C1215      C1216   1.554       .  S
C1215      C1516   1.494       .  S
C1216      C1220   1.537       .  S
C1216      C1730   1.556       .  S
C1216      H1222   1.111       .  S
C1217      C1725   1.535       .  S
C1217      H1223   1.084       .  S
C1217      C1218   1.362       .  D
C1218      C1728   1.555   1_545  S
C1218      C1525   1.496       .  S
C1219      H1224   1.084       .  S
C1219      C1220   1.377       .  D
C1220      C1264   1.493       .  S
C1225      C1226   1.535       .  S
C1225      C1229   1.531       .  S
C1225      C1408   1.550       .  S
C1226      H1233   1.079       .  S
C1227      C1228   1.557   1_455  S
C1227      C1384   1.502   1_455  S
C1228      C1232   1.541       .  S
C1228      C1230   1.558   1_655  S
C1228      H1234   1.110       .  S
C1229      H1235   1.087       .  S
C1230      C1372   1.508   1_455  S
C1231      H1236   1.085       .  S
C1231      C1232   1.378   1_455  D
C1232      C1393   1.500       .  S
C1237      C1750   1.527       .  S
C1237      C1243   1.559       .  S
C1237      C1241   1.534       .  S
C1237      C1357   1.551       .  S
C1238      C1749   1.525   1_545  S
C1238      H1245   1.086       .  S
C1238      C1239   1.365       .  D
C1239      C1752   1.560   1_545  S
C1239      C1420   1.506       .  S
C1240      C1751   1.559       .  S
C1240      C1244   1.544       .  S
C1240      C1242   1.565       .  S
C1240      H1246   1.110       .  S
C1241      H1247   1.086       .  S
C1241      C1242   1.368       .  D
C1242      C1429   1.507       .  S
C1243      H1248   1.082       .  S
C1243      C1244   1.376       .  D
C1244      C1345   1.508       .  S
C1249      C1250   1.408       .  A
C1249      C1766   1.403       .  A
C1250      C1251   1.404       .  A
C1250      H1255   1.084       .  S
C1251      C1252   1.414       .  A
C1251      O1256   1.373       .  S
C1252      C1765   1.418       .  A
C1253      C1764   1.419   1_545  A
C1253      C1254   1.408       .  A
C1253      H1257   1.080       .  S
C1254      C1761   1.402   1_545  A
C1254      O1258   1.371       .  S
O1256      H1260   0.992       .  S
O1258      H1259   0.990       .  S
C1261      C1262   1.408       .  A
C1261      C1266   1.408       .  A
C1262      C1263   1.404       .  A
C1262      H1267   1.084       .  S
C1263      C1264   1.408       .  A
C1263      O1268   1.372       .  S
C1264      C1265   1.408       .  A
C1265      C1266   1.408       .  A
C1265      H1269   1.083       .  S
C1266      O1270   1.371       .  S
O1268      H1272   0.991       .  S
O1270      H1271   0.992       .  S
C1273      C1278   1.399       .  A
C1274      C1275   1.409       .  A
C1274      H1279   1.083       .  S
C1275      O1280   1.370       .  S
C1276      C1277   1.418       .  A
C1277      C1278   1.402       .  A
C1277      H1281   1.083       .  S
C1278      O1282   1.372       .  S
O1280      H1284   0.991       .  S
O1282      H1283   0.991       .  S
C1285      C1290   1.420   1_455  A
C1286      C1287   1.397       .  A
C1286      H1291   1.083       .  S
C1287      O1292   1.373       .  S
C1288      C1289   1.403       .  A
C1289      C1290   1.413       .  A
C1289      H1293   1.084       .  S
C1290      O1294   1.370       .  S
O1292      H1296   0.991       .  S
O1294      H1295   0.992       .  S
C1297      C1298   1.400       .  A
C1297      C1302   1.405       .  A
C1298      C1299   1.394   1_554  A
C1298      H1303   1.084   1_554  S
C1299      C1300   1.407   1_556  A
C1299      O1304   1.373       .  S
C1300      C1301   1.401       .  A
C1301      C1302   1.392       .  A
C1301      H1305   1.084       .  S
C1302      O1306   1.373       .  S
O1304      H1308   0.992       .  S
O1306      H1307   0.992       .  S
C1309      C1310   1.399       .  A
C1309      C1314   1.408       .  A
C1310      C1311   1.388       .  A
C1310      H1315   1.084   1_554  S
C1311      C1312   1.407       .  A
C1311      O1316   1.372   1_554  S
C1312      C1313   1.402       .  A
C1313      C1314   1.392       .  A
C1313      H1317   1.084       .  S
C1314      O1318   1.372       .  S
O1316      H1320   0.992       .  S
O1318      H1319   0.992       .  S
C1321      C1322   1.405       .  A
C1321      C1326   1.406       .  A
C1322      C1323   1.398   1_554  A
C1322      H1327   1.084   1_554  S
C1323      C1324   1.408   1_556  A
C1323      O1328   1.371       .  S
C1324      C1325   1.403       .  A
C1325      C1326   1.394       .  A
C1325      H1329   1.084       .  S
C1326      O1330   1.373       .  S
O1328      H1332   0.992       .  S
O1330      H1331   0.992       .  S
C1333      C1334   1.402       .  A
C1333      C1338   1.406   1_554  A
C1334      C1335   1.394       .  A
C1334      H1339   1.082       .  S
C1335      C1336   1.408       .  A
C1335      O1340   1.374       .  S
C1336      C1337   1.400       .  A
C1337      C1338   1.393   1_554  A
C1337      H1341   1.084   1_554  S
C1338      O1342   1.370       .  S
O1340      H1344   0.992       .  S
O1342      H1343   0.992       .  S
C1345      C1346   1.411       .  A
C1345      C1862   1.411       .  A
C1346      C1347   1.416       .  A
C1346      H1351   1.083       .  S
C1347      C1860   1.411       .  A
C1347      O1352   1.371       .  S
C1348      C1859   1.411   1_545  A
C1348      C1349   1.406       .  A
C1349      C1350   1.403       .  A
C1349      H1353   1.083       .  S
C1350      C1857   1.411       .  A
C1350      O1354   1.373       .  S
O1352      H1356   0.991       .  S
O1354      H1355   0.992       .  S
C1357      C1358   1.402       .  A
C1357      C1874   1.425       .  A
C1358      C1359   1.399       .  A
C1358      H1363   1.078       .  S
C1359      C1872   1.419       .  A
C1359      O1364   1.369       .  S
C1360      C1871   1.423       .  A
C1360      C1361   1.406   1_545  A
C1361      C1362   1.418       .  A
C1361      H1365   1.083       .  S
C1362      C1869   1.425       .  A
C1362      O1366   1.371       .  S
O1364      H1368   0.992       .  S
O1366      H1367   0.991   1_565  S
C1369      C1370   1.405       .  A
C1370      C1371   1.410   1_655  A
C1370      H1375   1.083   1_655  S
C1371      C1372   1.419   1_455  A
C1371      O1376   1.372       .  S
C1373      C1374   1.402       .  A
C1373      H1377   1.084       .  S
C1374      O1378   1.373       .  S
O1376      H1380   0.992   1_455  S
O1378      H1379   0.992       .  S
C1381      C1386   1.426       .  A
C1382      C1383   1.411       .  A
C1382      H1387   1.083       .  S
C1383      O1388   1.373       .  S
C1384      C1385   1.397       .  A
C1385      C1386   1.405       .  A
C1385      H1389   1.084       .  S
C1386      O1390   1.372       .  S
O1388      H1392   0.992       .  S
O1390      H1391   0.992       .  S
C1393      C1394   1.411       .  A
C1393      C1398   1.408       .  A
C1394      C1395   1.414       .  A
C1394      H1399   1.083       .  S
C1395      C1396   1.410       .  A
C1395      O1400   1.371       .  S
C1396      C1397   1.409       .  A
C1397      C1398   1.402       .  A
C1397      H1401   1.084       .  S
C1398      O1402   1.373       .  S
O1400      H1404   0.991       .  S
O1402      H1403   0.992       .  S
C1405      C1406   1.406       .  A
C1405      C1410   1.403       .  A
C1406      C1407   1.403       .  A
C1406      H1411   1.078       .  S
C1407      C1408   1.413       .  A
C1407      O1412   1.373       .  S
C1408      C1409   1.422       .  A
C1409      C1410   1.410       .  A
C1409      H1413   1.076       .  S
C1410      O1414   1.372       .  S
O1412      H1416   0.992       .  S
O1414      H1415   0.991       .  S
C1417      C1418   1.413       .  A
C1417      C1422   1.406       .  A
C1418      C1419   1.403       .  A
C1418      H1423   1.084       .  S
C1419      C1420   1.406       .  A
C1419      O1424   1.370       .  S
C1420      C1421   1.418       .  A
C1421      C1422   1.406       .  A
C1421      H1425   1.082       .  S
C1422      O1426   1.372       .  S
O1424      H1428   0.992       .  S
O1426      H1427   0.992       .  S
C1429      C1430   1.397       .  A
C1429      C1434   1.419       .  A
C1430      C1431   1.407       .  A
C1430      H1435   1.084       .  S
C1431      C1432   1.427       .  A
C1431      O1436   1.372       .  S
C1432      C1433   1.407       .  A
C1433      C1434   1.414       .  A
C1433      H1437   1.083       .  S
C1434      O1438   1.372       .  S
O1436      H1440   0.993       .  S
O1438      H1439   0.991       .  S
C1441      C1442   1.400       .  A
C1441      C1446   1.409       .  A
C1442      C1443   1.394       .  A
C1442      H1447   1.084       .  S
C1443      C1444   1.406       .  A
C1443      O1448   1.372       .  S
C1444      C1445   1.401       .  A
C1445      C1446   1.397       .  A
C1445      H1449   1.084       .  S
C1446      O1450   1.372       .  S
O1448      H1452   0.992       .  S
O1450      H1451   0.992       .  S
C1453      C1454   1.404       .  A
C1453      C1458   1.401       .  A
C1454      C1455   1.395       .  A
C1454      H1459   1.084       .  S
C1455      C1456   1.402       .  A
C1455      O1460   1.372       .  S
C1456      C1457   1.399       .  A
C1457      C1458   1.391       .  A
C1457      H1461   1.080       .  S
C1458      O1462   1.372       .  S
O1460      H1464   0.992       .  S
O1462      H1463   0.992       .  S
C1465      C1466   1.403       .  A
C1465      C1470   1.406       .  A
C1466      C1467   1.393       .  A
C1466      H1471   1.084       .  S
C1467      C1468   1.407       .  A
C1467      O1472   1.372       .  S
C1468      C1469   1.403       .  A
C1469      C1470   1.395       .  A
C1469      H1473   1.084       .  S
C1470      O1474   1.373       .  S
O1472      H1476   0.992       .  S
O1474      H1475   0.992       .  S
C1477      C1478   1.398       .  A
C1477      C1482   1.403       .  A
C1478      C1479   1.390       .  A
C1478      H1483   1.084       .  S
C1479      C1480   1.407       .  A
C1479      O1484   1.372       .  S
C1480      C1481   1.399       .  A
C1481      C1482   1.388       .  A
C1481      H1485   1.084       .  S
C1482      O1486   1.372       .  S
O1484      H1488   0.992       .  S
O1486      H1487   0.992       .  S
C1489      C1490   1.409       .  A
C1489      C1494   1.408       .  A
C1490      C1491   1.405       .  A
C1490      H1495   1.084       .  S
C1491      C1492   1.415       .  A
C1491      O1496   1.371       .  S
C1492      C1493   1.419       .  A
C1493      C1494   1.414       .  A
C1493      H1497   1.081       .  S
C1494      O1498   1.371       .  S
O1496      H1500   0.992       .  S
O1498      H1499   0.992       .  S
C1501      C1502   1.406       .  A
C1501      C1506   1.417       .  A
C1502      C1503   1.416       .  A
C1502      H1507   1.083       .  S
C1503      C1504   1.415       .  A
C1503      O1508   1.371       .  S
C1504      C1505   1.402       .  A
C1505      C1506   1.402       .  A
C1505      H1509   1.084       .  S
C1506      O1510   1.372       .  S
O1508      H1512   0.992       .  S
O1510      H1511   0.991       .  S
C1513      C1514   1.402       .  A
C1513      C1518   1.431       .  A
C1514      C1515   1.408       .  A
C1514      H1519   1.083       .  S
C1515      C1516   1.419       .  A
C1515      O1520   1.371       .  S
C1516      C1517   1.392       .  A
C1517      C1518   1.403       .  A
C1517      H1521   1.084       .  S
C1518      O1522   1.374       .  S
O1520      H1524   0.992       .  S
O1522      H1523   0.991       .  S
C1525      C1526   1.394       .  A
C1525      C1530   1.416       .  A
C1526      C1527   1.404       .  A
C1526      H1531   1.084       .  S
C1527      C1528   1.430       .  A
C1527      O1532   1.372       .  S
C1528      C1529   1.405       .  A
C1529      C1530   1.412       .  A
C1529      H1533   1.083       .  S
C1530      O1534   1.373       .  S
O1532      H1536   0.991       .  S
O1534      H1535   0.992       .  S
O1537      C1548   1.310       .  A
O1537     Eu1573   2.567       .  S
O1538      C1549   1.307       .  A
O1538     Eu1572   2.547       .  S
O1539      C1550   1.286       .  A
O1539     Eu1545   2.438       .  S
O1540      C1551   1.285       .  A
O1540     Eu1545   2.436       .  S
O1541      C1551   1.282       .  A
O1541     Eu1575   2.416       .  S
O1542      C1550   1.284       .  A
O1542     Eu1574   2.428       .  S
O1543      C1549   1.285       .  A
O1543     Eu1545   2.420       .  S
O1544      C1548   1.282       .  A
O1544     Eu1545   2.414       .  S
Eu1545     O1555   2.343       .  S
Eu1545     O1547   2.333       .  S
Eu1545     O1546   2.341       .  S
Eu1545     O1553   2.358       .  S
O1546     Eu1575   2.344       .  S
O1546     Eu1572   2.381       .  S
O1547     Eu1573   2.373       .  S
O1547     Eu1574   2.343       .  S
C1548      C2040   1.518       .  S
C1549      C1929   1.496       .  S
C1550      C1953   1.457       .  S
C1551      C1968   1.450       .  S
H1552      O1553   0.965       .  S
O1553     Eu1574   2.346       .  S
O1553     Eu1572   2.382       .  S
H1554      O1555   0.966       .  S
O1555     Eu1573   2.365       .  S
O1555     Eu1575   2.347       .  S
O1556      C1579   1.309       .  A
O1556     Eu1572   2.553       .  S
O1557      C1580   1.306       .  A
O1557     Eu1573   2.543       .  S
O1558      C1581   1.289       .  A
O1558     Eu1574   2.444       .  S
O1559      C1582   1.287       .  A
O1559     Eu1575   2.434       .  S
O1560      C1583   1.287       .  A
O1560     Eu1575   2.434       .  S
O1561      C1584   1.285       .  A
O1561     Eu1574   2.421       .  S
O1562      C1585   1.285       .  A
O1562     Eu1576   2.431       .  S
O1563      C1586   1.288       .  A
O1563     Eu1576   2.456       .  S
O1564      C1585   1.283       .  A
O1564     Eu1574   2.422       .  S
O1565      C1586   1.285       .  A
O1565     Eu1575   2.428       .  S
O1566      C1581   1.307       .  A
O1566     Eu1572   2.551       .  S
O1567      C1584   1.305       .  A
O1567     Eu1573   2.537       .  S
O1568      C1583   1.304       .  A
O1568     Eu1573   2.530       .  S
O1569      C1582   1.304       .  A
O1569     Eu1572   2.529       .  S
O1570      C1579   1.284       .  A
O1570     Eu1576   2.419       .  S
O1571      C1580   1.284       .  A
O1571     Eu1576   2.421       .  S
Eu1572     O1590   2.370       .  S
Eu1572     O1578   2.375       .  S
Eu1573     O1577   2.388       .  S
Eu1573     O1588   2.376       .  S
Eu1574     O1588   2.358       .  S
Eu1574     O1578   2.341       .  S
Eu1575     O1577   2.348       .  S
Eu1575     O1590   2.337       .  S
Eu1576     O1577   2.345       .  S
Eu1576     O1588   2.348       .  S
Eu1576     O1590   2.339       .  S
Eu1576     O1578   2.355       .  S
C1579      C1944   1.511       .  S
C1580      C2025   1.507       .  S
C1581      C1908   1.510       .  S
C1582      C1917   1.496       .  S
C1583      C2001   1.494       .  S
C1584      C2013   1.496       .  S
C1585      C1989   1.447       .  S
C1586      C1980   1.464       .  S
H1587      O1588   0.967       .  S
H1589      O1590   0.964       .  S
N1591      H1623   1.041       .  S
N1591      C1595   1.348       .  A
N1592      C1600   1.349       .  A
N1593      H1624   1.040       .  S
N1593      C1597   1.348       .  A
N1594      C1602   1.342       .  A
C1595      C1603   1.387       .  A
C1595      C1611   1.406       .  A
C1596      C1612   1.405       .  A
C1596      C1604   1.387       .  A
C1597      C1605   1.386       .  A
C1597      C1614   1.405       .  A
C1598      C1613   1.403       .  A
C1598      C1606   1.387       .  A
C1599      C1611   1.402       .  A
C1599      C1607   1.386       .  A
C1600      C1614   1.407       .  A
C1600      C1608   1.385       .  A
C1601      C1609   1.386       .  A
C1601      C1612   1.401       .  A
C1602      C1610   1.386       .  A
C1602      C1613   1.398       .  A
C1603      H1615   1.082       .  S
C1604      H1616   1.082       .  S
C1605      H1617   1.082       .  S
C1606      H1618   1.083       .  S
C1607      H1619   1.083       .  S
C1608      H1620   1.082       .  S
C1609      H1621   1.082       .  S
C1610      H1622   1.083       .  S
C1611      C1992   1.465       .  S
C1612      C1956   1.472       .  S
C1613      C1965   1.461       .  S
C1614      C1977   1.476       .  S
O1625      C1636   1.310       .  A
O1626      C1637   1.304       .  A
O1626     Eu1660   2.532       .  S
O1627      C1638   1.288       .  A
O1628      C1639   1.286       .  A
O1628     Eu1633   2.438   1_554  S
O1629      C1639   1.286   1_556  A
O1629     Eu1663   2.441   1_565  S
O1630      C1638   1.286       .  A
O1630     Eu1662   2.441   1_565  S
O1631      C1637   1.288       .  A
O1631     Eu1633   2.433   1_554  S
O1632      C1636   1.285       .  A
O1632     Eu1633   2.418       .  S
Eu1633     O1643   2.356       .  S
Eu1633     O1634   2.335   1_556  S
O1634     Eu1663   2.347   1_564  S
O1634     Eu1660   2.371       .  S
O1635     Eu1662   2.338   1_565  S
C1636      C1893   1.509       .  S
C1637      C1788   1.506       .  S
C1638      C1812   1.469   1_556  S
C1639      C1821   1.463       .  S
H1640      O1641   0.969       .  S
O1641     Eu1662   2.346   1_564  S
H1642      O1643   0.965       .  S
O1643     Eu1663   2.349   1_565  S
O1644      C1667   1.302       .  A
O1645      C1668   1.308       .  A
O1645     Eu1661   2.547       .  S
O1646      C1669   1.284       .  A
O1646     Eu1662   2.408   1_564  S
O1647      C1670   1.287       .  A
O1647     Eu1663   2.429   1_564  S
O1648      C1671   1.289       .  A
O1649      C1672   1.285       .  A
O1650      C1673   1.285       .  A
O1651      C1674   1.289       .  A
O1651     Eu1664   2.454       .  S
O1652      C1673   1.286       .  A
O1653      C1674   1.284       .  A
O1654      C1669   1.303       .  A
O1655      C1672   1.305       .  A
O1656      C1671   1.305       .  A
O1656     Eu1661   2.537       .  S
O1657      C1670   1.302       .  A
O1657     Eu1660   2.517       .  S
O1658      C1667   1.286       .  A
O1658     Eu1664   2.432       .  S
O1659      C1668   1.288       .  A
O1659     Eu1664   2.439   1_556  S
Eu1661     O1665   2.389       .  S
Eu1664     O1665   2.348   1_554  S
Eu1664     O1678   2.347       .  S
C1667      C1800   1.481       .  S
C1668      C1881   1.516       .  S
C1669      C1761   1.485       .  S
C1670      C1773   1.488       .  S
C1671      C1860   1.499       .  S
C1672      C1872   1.511       .  S
C1673      C1845   1.468       .  S
C1674      C1836   1.463       .  S
H1675      O1676   0.964       .  S
H1677      O1678   0.966       .  S
N1679      H1711   1.042       .  S
N1679      C1684   1.351       .  A
N1679      C1683   1.350       .  A
N1680      C1687   1.345       .  A
N1680      C1688   1.347       .  A
N1681      H1712   1.043       .  S
N1681      C1686   1.348       .  A
N1681      C1685   1.350       .  A
N1682      C1689   1.345       .  A
N1682      C1690   1.345       .  A
C1683      C1691   1.387       .  A
C1683      C1699   1.409       .  A
C1684      C1700   1.410       .  A
C1684      C1692   1.388       .  A
C1685      C1693   1.385       .  A
C1685      C1702   1.405       .  A
C1686      C1701   1.408       .  A
C1686      C1694   1.388       .  A
C1687      C1699   1.405       .  A
C1687      C1695   1.387       .  A
C1688      C1702   1.406       .  A
C1688      C1696   1.386       .  A
C1689      C1697   1.385       .  A
C1689      C1700   1.403       .  A
C1690      C1698   1.388       .  A
C1690      C1701   1.407       .  A
C1691      C1692   1.373       .  A
C1691      H1703   1.082   1_554  S
C1692      H1704   1.082       .  S
C1693      C1694   1.372       .  A
C1693      H1705   1.082   1_554  S
C1694      H1706   1.082   1_554  S
C1695      C1696   1.375       .  A
C1695      H1707   1.083       .  S
C1696      H1708   1.082       .  S
C1697      C1698   1.376       .  A
C1697      H1709   1.083       .  S
C1698      H1710   1.082       .  S
C1699      C1824   1.476       .  S
C1700      C1833   1.476       .  S
C1701      C1848   1.477       .  S
C1702      C1809   1.483       .  S
C1713      C1714   1.527       .  S
C1713      C1717   1.534       .  S
C1713      C2004   1.551       .  S
C1714      H1721   1.086       .  S
C1715      C1716   1.556   1_455  S
C1715      C1797   1.509       .  S
C1716      C1720   1.541       .  S
C1716      C1718   1.552   1_655  S
C1716      H1722   1.105       .  S
C1717      H1723   1.083       .  S
C1718      C1785   1.501   1_455  S
C1719      H1724   1.085       .  S
C1719      C1720   1.380   1_455  D
C1720      C2016   1.503       .  S
C1725      C1726   1.531   1_545  S
C1725      C1731   1.551       .  S
C1725      C1764   1.540   1_545  S
C1726      H1733   1.086       .  S
C1726      C1727   1.364       .  D
C1727      C1728   1.554       .  S
C1727      C2028   1.502       .  S
C1728      C1732   1.538       .  S
C1728      H1734   1.110       .  S
C1729      H1735   1.084       .  S
C1729      C1730   1.364       .  D
C1730      C2037   1.503       .  S
C1731      H1736   1.084       .  S
C1731      C1732   1.375   1_545  D
C1732      C1776   1.494       .  S
C1737      C1738   1.536       .  S
C1737      C1741   1.531       .  S
C1737      C1920   1.554       .  S
C1738      H1745   1.082       .  S
C1739      C1740   1.564   1_455  S
C1739      C1896   1.513   1_455  S
C1740      C1744   1.544       .  S
C1740      C1742   1.564   1_655  S
C1740      H1746   1.110       .  S
C1741      H1747   1.086       .  S
C1742      C1884   1.505       .  S
C1743      H1748   1.084       .  S
C1743      C1744   1.380   1_455  D
C1744      C1905   1.512       .  S
C1749      C1755   1.561       .  S
C1749      C1753   1.530       .  S
C1749      C1869   1.550       .  S
C1750      H1757   1.087       .  S
C1750      C1751   1.362       .  D
C1751      C1932   1.500       .  S
C1752      C1756   1.538       .  S
C1752      C1754   1.564       .  S
C1752      H1758   1.108       .  S
C1753      H1759   1.086       .  S
C1753      C1754   1.369       .  D
C1754      C1941   1.505       .  S
C1755      H1760   1.081       .  S
C1755      C1756   1.374       .  D
C1756      C1857   1.507   1_565  S
C1761      C1762   1.406       .  A
C1762      C1763   1.400       .  A
C1762      H1767   1.084       .  S
C1763      C1764   1.414       .  A
C1763      O1768   1.373       .  S
C1765      C1766   1.408       .  A
C1765      H1769   1.081       .  S
C1766      O1770   1.372       .  S
O1768      H1772   0.993       .  S
O1770      H1771   0.991       .  S
C1773      C1774   1.408       .  A
C1773      C1778   1.408   1_565  A
C1774      C1775   1.401       .  A
C1774      H1779   1.084       .  S
C1775      C1776   1.409       .  A
C1775      O1780   1.373       .  S
C1776      C1777   1.409   1_565  A
C1777      C1778   1.409       .  A
C1777      H1781   1.083       .  S
C1778      O1782   1.371       .  S
O1780      H1784   0.992       .  S
O1782      H1783   0.992       .  S
C1785      C1790   1.404       .  A
C1786      C1787   1.408       .  A
C1786      H1791   1.083       .  S
C1787      O1792   1.371       .  S
C1788      C1789   1.417       .  A
C1789      C1790   1.407       .  A
C1789      H1793   1.083       .  S
C1790      O1794   1.372       .  S
O1792      H1796   0.992       .  S
O1794      H1795   0.992       .  S
C1797      C1802   1.417   1_455  A
C1798      C1799   1.406       .  A
C1798      H1803   1.083       .  S
C1799      O1804   1.372       .  S
C1800      C1801   1.403       .  A
C1801      C1802   1.412       .  A
C1801      H1805   1.084       .  S
C1802      O1806   1.371       .  S
O1804      H1808   0.991       .  S
O1806      H1807   0.992       .  S
C1809      C1810   1.405   1_554  A
C1809      C1814   1.407       .  A
C1810      C1811   1.400       .  A
C1810      H1815   1.084       .  S
C1811      C1812   1.408   1_556  A
C1811      O1816   1.372       .  S
C1812      C1813   1.402       .  A
C1813      C1814   1.394       .  A
C1813      H1817   1.084       .  S
C1814      O1818   1.373       .  S
O1816      H1820   0.992       .  S
O1818      H1819   0.992       .  S
C1821      C1822   1.401   1_554  A
C1821      C1826   1.408       .  A
C1822      C1823   1.397       .  A
C1822      H1827   1.084       .  S
C1823      C1824   1.409   1_556  A
C1823      O1828   1.372       .  S
C1824      C1825   1.399       .  A
C1825      C1826   1.394       .  A
C1825      H1829   1.084       .  S
C1826      O1830   1.372       .  S
O1828      H1832   0.992       .  S
O1830      H1831   0.992       .  S
C1833      C1834   1.402       .  A
C1833      C1838   1.405       .  A
C1834      C1835   1.396       .  A
C1834      H1839   1.084   1_554  S
C1835      C1836   1.407       .  A
C1835      O1840   1.372   1_554  S
C1836      C1837   1.403       .  A
C1837      C1838   1.396       .  A
C1837      H1841   1.084       .  S
C1838      O1842   1.372       .  S
O1840      H1844   0.992       .  S
O1842      H1843   0.991       .  S
C1845      C1846   1.403       .  A
C1845      C1850   1.406       .  A
C1846      C1847   1.394       .  A
C1846      H1851   1.083       .  S
C1847      C1848   1.407       .  A
C1847      O1852   1.374       .  S
C1848      C1849   1.400       .  A
C1849      C1850   1.392       .  A
C1849      H1853   1.084       .  S
C1850      O1854   1.368   1_554  S
O1852      H1856   0.992       .  S
O1854      H1855   0.992       .  S
C1857      C1858   1.412   1_545  A
C1858      C1859   1.417       .  A
C1858      H1863   1.083       .  S
C1859      O1864   1.371       .  S
C1860      C1861   1.408       .  A
C1861      C1862   1.407       .  A
C1861      H1865   1.083       .  S
C1862      O1866   1.373       .  S
O1864      H1868   0.992       .  S
O1866      H1867   0.992       .  S
C1869      C1870   1.402   1_565  A
C1870      C1871   1.395       .  A
C1870      H1875   1.077       .  S
C1871      O1876   1.372       .  S
C1872      C1873   1.406       .  A
C1873      C1874   1.418       .  A
C1873      H1877   1.083       .  S
C1874      O1878   1.371       .  S
O1876      H1880   0.992       .  S
O1878      H1879   0.992       .  S
C1881      C1882   1.407       .  A
C1882      C1883   1.413   1_655  A
C1882      H1887   1.083   1_655  S
C1883      C1884   1.420       .  A
C1883      O1888   1.372       .  S
C1885      C1886   1.412       .  A
C1885      H1889   1.083       .  S
C1886      O1890   1.372       .  S
O1888      H1892   0.992   1_455  S
O1890      H1891   0.992       .  S
C1893      C1898   1.425       .  A
C1894      C1895   1.413       .  A
C1894      H1899   1.083       .  S
C1895      O1900   1.373       .  S
C1896      C1897   1.399       .  A
C1897      C1898   1.409       .  A
C1897      H1901   1.083       .  S
C1898      O1902   1.372       .  S
O1900      H1904   0.992       .  S
O1902      H1903   0.992       .  S
C1905      C1906   1.413       .  A
C1905      C1910   1.411       .  A
C1906      C1907   1.419       .  A
C1906      H1911   1.083       .  S
C1907      C1908   1.413       .  A
C1907      O1912   1.370       .  S
C1908      C1909   1.411       .  A
C1909      C1910   1.407       .  A
C1909      H1913   1.084       .  S
C1910      O1914   1.373       .  S
O1912      H1916   0.991       .  S
O1914      H1915   0.992       .  S
C1917      C1918   1.407       .  A
C1917      C1922   1.406       .  A
C1918      C1919   1.405       .  A
C1918      H1923   1.084       .  S
C1919      C1920   1.415       .  A
C1919      O1924   1.372       .  S
C1920      C1921   1.421       .  A
C1921      C1922   1.413       .  A
C1921      H1925   1.079       .  S
C1922      O1926   1.371       .  S
O1924      H1928   0.992       .  S
O1926      H1927   0.992       .  S
C1929      C1930   1.406       .  A
C1929      C1934   1.416       .  A
C1930      C1931   1.415       .  A
C1930      H1935   1.083       .  S
C1931      C1932   1.414       .  A
C1931      O1936   1.370       .  S
C1932      C1933   1.403       .  A
C1933      C1934   1.404       .  A
C1933      H1937   1.084       .  S
C1934      O1938   1.373       .  S
O1936      H1940   0.992       .  S
O1938      H1939   0.992       .  S
C1941      C1942   1.398       .  A
C1941      C1946   1.419       .  A
C1942      C1943   1.408       .  A
C1942      H1947   1.082       .  S
C1943      C1944   1.428       .  A
C1943      O1948   1.373       .  S
C1944      C1945   1.405       .  A
C1945      C1946   1.410       .  A
C1945      H1949   1.083       .  S
C1946      O1950   1.371       .  S
O1948      H1952   0.992       .  S
O1950      H1951   0.992       .  S
C1953      C1954   1.399       .  A
C1953      C1958   1.407       .  A
C1954      C1955   1.393       .  A
C1954      H1959   1.084       .  S
C1955      C1956   1.407       .  A
C1955      O1960   1.372       .  S
C1956      C1957   1.401       .  A
C1957      C1958   1.395       .  A
C1957      H1961   1.084       .  S
C1958      O1962   1.372       .  S
O1960      H1964   0.992       .  S
O1962      H1963   0.992       .  S
C1965      C1966   1.397       .  A
C1965      C1970   1.405       .  A
C1966      C1967   1.390       .  A
C1966      H1971   1.084       .  S
C1967      C1968   1.406       .  A
C1967      O1972   1.373       .  S
C1968      C1969   1.400       .  A
C1969      C1970   1.392       .  A
C1969      H1973   1.084       .  S
C1970      O1974   1.372       .  S
O1972      H1976   0.992       .  S
O1974      H1975   0.991       .  S
C1977      C1978   1.399       .  A
C1977      C1982   1.409       .  A
C1978      C1979   1.394       .  A
C1978      H1983   1.084       .  S
C1979      C1980   1.410       .  A
C1979      O1984   1.373       .  S
C1980      C1981   1.400       .  A
C1981      C1982   1.398       .  A
C1981      H1985   1.084       .  S
C1982      O1986   1.372       .  S
O1984      H1988   0.992       .  S
O1986      H1987   0.992       .  S
C1989      C1990   1.398       .  A
C1989      C1994   1.405       .  A
C1990      C1991   1.393       .  A
C1990      H1995   1.084       .  S
C1991      C1992   1.406       .  A
C1991      O1996   1.372       .  S
C1992      C1993   1.398       .  A
C1993      C1994   1.390       .  A
C1993      H1997   1.084       .  S
C1994      O1998   1.372       .  S
O1996      H2000   0.992       .  S
O1998      H1999   0.992       .  S
C2001      C2002   1.407       .  A
C2001      C2006   1.406       .  A
C2002      C2003   1.402       .  A
C2002      H2007   1.084       .  S
C2003      C2004   1.415       .  A
C2003      O2008   1.371       .  S
C2004      C2005   1.422       .  A
C2005      C2006   1.412       .  A
C2005      H2009   1.080       .  S
C2006      O2010   1.372       .  S
O2008      H2012   0.991       .  S
O2010      H2011   0.992       .  S
C2013      C2014   1.404       .  A
C2013      C2018   1.418       .  A
C2014      C2015   1.414       .  A
C2014      H2019   1.083       .  S
C2015      C2016   1.418       .  A
C2015      O2020   1.371       .  S
C2016      C2017   1.402       .  A
C2017      C2018   1.399       .  A
C2017      H2021   1.084       .  S
C2018      O2022   1.373       .  S
O2020      H2024   0.992       .  S
O2022      H2023   0.991       .  S
C2025      C2026   1.405       .  A
C2025      C2030   1.425       .  A
C2026      C2027   1.411       .  A
C2026      H2031   1.083       .  S
C2027      C2028   1.421       .  A
C2027      O2032   1.372       .  S
C2028      C2029   1.396       .  A
C2029      C2030   1.405       .  A
C2029      H2033   1.084       .  S
C2030      O2034   1.373       .  S
O2032      H2036   0.992       .  S
O2034      H2035   0.991       .  S
C2037      C2038   1.394       .  A
C2037      C2042   1.418       .  A
C2038      C2039   1.407       .  A
C2038      H2043   1.084       .  S
C2039      C2040   1.431       .  A
C2039      O2044   1.373       .  S
C2040      C2041   1.407       .  A
C2041      C2042   1.416       .  A
C2041      H2045   1.083       .  S
C2042      O2046   1.372       .  S
O2044      H2048   0.992       .  S
O2046      H2047   0.992       .  S
