geometry optimzed in LAMMPS
_audit_creation_date              2020-12-01 
_audit_creation_method            'lammps2cif' 
_symmetry_space_group_name_H-M    'P1' 
_symmetry_Int_Tables_number       1 
_symmetry_cell_setting            triclinic 
loop_ 
_symmetry_equiv_pos_as_xyz 
  x,y,z 
_cell_length_a                    48.69932064 
_cell_length_b                    29.85818336904354 
_cell_length_c                    28.151511906135642 
_cell_angle_alpha                 89.77060876911762 
_cell_angle_beta                  90.55139598234649 
_cell_angle_gamma                 89.18827953055069 
loop_ 
_atom_site_label 
_atom_site_type_symbol 
_atom_site_fract_x 
_atom_site_fract_y 
_atom_site_fract_z 
_atom_site_charge 
O1          O  0.52643477  0.02201488  0.30236353    -0.72500
O2          O  0.47201604  0.03263040  0.20614672    -0.72700
O3          O  0.47115626  0.02489090  0.30101971    -0.72500
O4          O  0.52706591  0.02972486  0.20774012    -0.72500
O5          O  0.52673275  0.95724882  0.20204360    -0.72500
O6          O  0.47044827  0.95246396  0.29454088    -0.72500
O7          O  0.47134563  0.96009319  0.19961159    -0.72500
O8          O  0.52583219  0.94947094  0.29684643    -0.72600
V9          V  0.49916967  0.02586190  0.25426303     1.35200
V10         V  0.49858155  0.95619691  0.24835553     1.35200
C11         C  0.53552139  0.98417599  0.31586298     0.76800
C12         C  0.46239874  0.99820712  0.18661584     0.76800
C13         C  0.46113051  0.98784633  0.31345424     0.76700
C14         C  0.53646525  0.99433960  0.18902662     0.76700
C15         C  0.33879709  0.95985440  0.00678373     0.85800
C16         C  0.32632517  0.00672228  0.49474664    -0.54400
C17         C  0.34490986  0.04048745  0.48870090     0.08700
C18         C  0.37471404  0.02309328  0.49224668     0.19700
C19         C  0.35715987  0.95164550  0.46327999    -0.55100
C20         C  0.37636928  0.98395140  0.45615261     0.08800
C21         C  0.35911145  0.96756157  0.04758568    -0.54700
C22         C  0.37779172  0.00069655  0.04136280     0.09400
H23         H  0.30509137  0.01240230  0.48506410     0.13900
H24         H  0.38927420  0.04985042  0.48714309    -0.00300
H25         H  0.35527730  0.92283289  0.44011865     0.14200
H26         H  0.35950912  0.94566034  0.07845955     0.14000
C27         C  0.65565531  0.04630227  0.48962517     0.85800
C28         C  0.63973301  0.03043030  0.44637860    -0.54400
C29         C  0.62395991  0.99420700  0.45382832     0.08700
C30         C  0.62715732  0.97423817  0.00504616     0.19700
C31         C  0.63355197  0.05109417  0.02933474    -0.55100
C32         C  0.61865967  0.01258730  0.03861622     0.08800
C33         C  0.67254382  0.00595109  0.00768802    -0.54700
C34         C  0.65809149  0.96822314  0.01523756     0.09400
H35         H  0.63858440  0.04970830  0.41354309     0.13900
H36         H  0.61696186  0.94210955  0.01087651    -0.00300
H37         H  0.63021175  0.08207362  0.04809580     0.14200
H38         H  0.69411626  0.00787123  0.01746768     0.14000
O39         O  0.53021289  0.48535430  0.18298508    -0.72500
O40         O  0.47207378  0.48758081  0.27139852    -0.72700
O41         O  0.47500003  0.48121201  0.17732951    -0.72500
O42         O  0.52728052  0.49162662  0.27706544    -0.72500
O43         O  0.52665168  0.56348177  0.27064238    -0.72500
O44         O  0.47104870  0.55376619  0.17427706    -0.72500
O45         O  0.47137417  0.55997405  0.26996701    -0.72500
O46         O  0.52627958  0.55711360  0.17395734    -0.72600
V47         V  0.50113384  0.48791851  0.22716737     1.35200
V48         V  0.49892772  0.55735627  0.22221380     1.35200
C49         C  0.53781682  0.52053953  0.16218245     0.76800
C50         C  0.46189990  0.52391651  0.28650232     0.76800
C51         C  0.46367368  0.51571910  0.15949164     0.76700
C52         C  0.53607732  0.52879576  0.29155081     0.76700
C53         C  0.33988736  0.47303822  0.46545312     0.85800
C54         C  0.35676604  0.48382742  0.42148300    -0.54400
C55         C  0.37405215  0.51870211  0.42579961     0.08700
C56         C  0.37256122  0.54165491  0.97524542     0.19700
C57         C  0.36265842  0.46678347  0.00430450    -0.55100
C58         C  0.37955159  0.50311081  0.01054362     0.08800
C59         C  0.32514544  0.51662870  0.97855893    -0.54700
C60         C  0.34170108  0.55278840  0.98388845     0.09400
H61         H  0.35722121  0.46216779  0.39049150     0.13900
H62         H  0.38569674  0.57146727  0.97866944    -0.00300
H63         H  0.36646075  0.43576332  0.02346323     0.14200
H64         H  0.30313594  0.51839859  0.98459010     0.14000
C65         C  0.66269411  0.47576486  0.46922637     0.85800
C66         C  0.67832574  0.51794929  0.97994932    -0.54400
C67         C  0.66234751  0.55486729  0.98677081     0.08700
C68         C  0.63072835  0.54621915  0.98003435     0.19700
C69         C  0.64151216  0.47222143  0.01038894    -0.55100
C70         C  0.62442104  0.50910015  0.01659156     0.08800
C71         C  0.64454828  0.48749603  0.42596284    -0.54700
C72         C  0.62685616  0.52265793  0.43131315     0.09400
H73         H  0.70044943  0.51785468  0.98575517     0.13900
H74         H  0.61742424  0.57628836  0.98230801    -0.00300
H75         H  0.64001777  0.44285285  0.03274262     0.14200
H76         H  0.64402297  0.46666583  0.39439867     0.14000
O77         O  0.02488071  0.47293766  0.44790837    -0.72500
O78         O  0.96708802  0.46712931  0.03689817    -0.72700
O79         O  0.96967908  0.47760945  0.44197985    -0.72500
O80         O  0.02231017  0.46221680  0.04179715    -0.72500
O81         O  0.02637490  0.53453001  0.04575831    -0.72500
O82         O  0.96852509  0.54927422  0.45522948    -0.72500
O83         O  0.97152441  0.53806601  0.05037164    -0.72500
O84         O  0.02353100  0.54516622  0.45062131    -0.72600
V85         V  0.99597689  0.47129935  0.49224170     1.35200
V86         V  0.99745441  0.54047597  0.50038019     1.35200
C87         C  0.03366744  0.50988722  0.43277243     0.76800
C88         C  0.95997039  0.50149288  0.06008398     0.76800
C89         C  0.95983649  0.51602371  0.43220158     0.76700
C90         C  0.03371077  0.49591806  0.05994215     0.76700
C91         C  0.15739435  0.46131798  0.25869288     0.85800
C92         C  0.13885766  0.47341145  0.30026847    -0.54400
C93         C  0.12096992  0.50778458  0.29269420     0.08700
C94         C  0.12345887  0.52882193  0.24228696     0.19700
C95         C  0.13593040  0.45302490  0.21825251    -0.55100
C96         C  0.11816692  0.48871118  0.20881919     0.08800
C97         C  0.17154600  0.50456024  0.24467410    -0.54700
C98         C  0.15431517  0.54002570  0.23577388     0.09400
H99         H  0.13759377  0.45254607  0.33191237     0.13900
H100        H  0.10998463  0.55845143  0.23586410    -0.00300
H101        H  0.13372229  0.42103363  0.20078439     0.14200
H102        H  0.19366266  0.50668719  0.24105948     0.14000
C103        C  0.83992702  0.46076291  0.25819578     0.85800
C104        C  0.82318665  0.50293236  0.24719690    -0.54400
C105        C  0.83815275  0.53925466  0.23562452     0.08700
C106        C  0.86959461  0.53077546  0.23789675     0.19700
C107        C  0.85894192  0.45452339  0.21463682    -0.55100
C108        C  0.87436413  0.49130286  0.20360583     0.08800
C109        C  0.86033431  0.47417108  0.29752278    -0.54700
C110        C  0.87583333  0.51089490  0.28783976     0.09400
H111        H  0.80087022  0.50341350  0.24636625     0.13900
H112        H  0.88183911  0.56071688  0.22941897    -0.00300
H113        H  0.86164751  0.42340539  0.19576264     0.14200
H114        H  0.86276117  0.45521920  0.33033091     0.14000
O115        O  0.97298172  0.00880332  0.46772294    -0.72500
O116        O  0.02878301  0.02365224  0.06141261    -0.72700
O117        O  0.02841847  0.01469310  0.46722263    -0.72500
O118        O  0.97374550  0.01771007  0.06245114    -0.72500
O119        O  0.97941187  0.94625140  0.07336914    -0.72500
O120        O  0.03003716  0.94238827  0.47084384    -0.72500
O121        O  0.03408655  0.95129603  0.06567855    -0.72500
O122        O  0.97502278  0.93669143  0.47858228    -0.72600
V123        V  0.00103545  0.01483277  0.51469312     1.35200
V124        V  0.00456413  0.94549434  0.52192848     1.35200
C125        C  0.96409715  0.97026238  0.45811205     0.76800
C126        C  0.04095795  0.98985667  0.07920788     0.76800
C127        C  0.03864168  0.97822883  0.45240712     0.76700
C128        C  0.96760662  0.98260308  0.08500125     0.76700
C129        C  0.16251933  0.03102340  0.27551477     0.85800
C130        C  0.17604454  0.98653169  0.26156729    -0.54400
C131        C  0.15854039  0.95141989  0.25603567     0.08700
C132        C  0.12822554  0.96468262  0.26546587     0.19700
C133        C  0.13987160  0.03902146  0.23688237    -0.55100
C134        C  0.12229001  0.00369863  0.23049852     0.08800
C135        C  0.14542057  0.02116212  0.31956429    -0.54700
C136        C  0.12735965  0.98733064  0.31492645     0.09400
H137        H  0.19791442  0.98365804  0.25468634     0.13900
H138        H  0.11424458  0.93595250  0.26248750    -0.00300
H139        H  0.13680846  0.07007980  0.21757521     0.14200
H140        H  0.14560122  0.04246743  0.35076527     0.14000
C141        C  0.84761222  0.03320009  0.28120459     0.85800
C142        C  0.86467387  0.01579538  0.32317350    -0.54400
C143        C  0.87904997  0.97688700  0.31580105     0.08700
C144        C  0.87429833  0.95781034  0.26529032     0.19700
C145        C  0.86853402  0.03579289  0.23979067    -0.55100
C146        C  0.88290094  0.99613524  0.23133127     0.08800
C147        C  0.82961593  0.99455499  0.26519614    -0.54700
C148        C  0.84283422  0.95523094  0.25780387     0.09400
H149        H  0.86670128  0.03515781  0.35560256     0.13900
H150        H  0.88482240  0.92523711  0.25990274    -0.00300
H151        H  0.87147762  0.06587500  0.21882000     0.14200
H152        H  0.80831629  0.99902612  0.25433843     0.14000
O153        O  0.78795500  0.20552943  0.38188607    -0.72500
O154        O  0.74427919  0.29918508  0.43478862    -0.72700
O155        O  0.74462287  0.20901471  0.44097970    -0.72500
O156        O  0.78737462  0.29501357  0.37658908    -0.72500
O157        O  0.75930186  0.29313112  0.31622386    -0.72500
O158        O  0.71721044  0.20575648  0.37970903    -0.72500
O159        O  0.71630176  0.29549699  0.37443641    -0.72500
O160        O  0.76053549  0.20346625  0.32062976    -0.72600
V161        V  0.76550145  0.25199915  0.40743856     1.35200
V162        V  0.73886898  0.24933383  0.34898415     1.35200
C163        C  0.78186517  0.18901094  0.34189258     0.76800
C164        C  0.72331590  0.31424404  0.41275471     0.76800
C165        C  0.72357478  0.19287707  0.42126230     0.76700
C166        C  0.78020562  0.30958193  0.33608450     0.76700
O167        O  0.71416780  0.79991430  0.13401429    -0.72500
O168        O  0.76028519  0.70622847  0.18075412    -0.72700
O169        O  0.75856447  0.79599022  0.19056640    -0.72500
O170        O  0.71573689  0.71075732  0.12317622    -0.72500
O171        O  0.74256483  0.71611928  0.06276041    -0.72500
O172        O  0.78448065  0.80283727  0.12884866    -0.72500
O173        O  0.78694008  0.71343584  0.11972913    -0.72500
O174        O  0.73996477  0.80588918  0.07175240    -0.72600
V175        V  0.73772586  0.75321163  0.15596826     1.35200
V176        V  0.76297861  0.75955244  0.09696997     1.35200
C177        C  0.71926711  0.81882743  0.09503221     0.76800
C178        C  0.78131989  0.69383248  0.15816073     0.76800
C179        C  0.77852916  0.81481437  0.17060424     0.76700
C180        C  0.72197885  0.69819497  0.08166575     0.76700
O181        O  0.28768957  0.29659014  0.36728545    -0.72500
O182        O  0.24680202  0.20190459  0.31258646    -0.72700
O183        O  0.24459084  0.29276039  0.30845498    -0.72500
O184        O  0.29005306  0.20626994  0.37204895    -0.72500
O185        O  0.26453231  0.21113951  0.43400591    -0.72500
O186        O  0.21587787  0.29010034  0.36677639    -0.72500
O187        O  0.22123699  0.20012761  0.37533381    -0.72500
O188        O  0.25877189  0.30024381  0.42545528    -0.72600
V189        V  0.26674437  0.24925384  0.34115629     1.35200
V190        V  0.24054394  0.25024082  0.39915309     1.35200
C191        C  0.27954248  0.31559321  0.40476441     0.76800
C192        C  0.22762996  0.18388833  0.33546453     0.76800
C193        C  0.22292506  0.30746808  0.32772284     0.76700
C194        C  0.28570474  0.19480565  0.41462201     0.76700
O195        O  0.21143924  0.79649154  0.11905604    -0.72500
O196        O  0.25194622  0.70277525  0.05785120    -0.72700
O197        O  0.20890327  0.70698650  0.11842335    -0.72500
O198        O  0.25336192  0.79287247  0.05776838    -0.72500
O199        O  0.27839024  0.79680431  0.12192336    -0.72500
O200        O  0.24036175  0.69618552  0.17200893    -0.72500
O201        O  0.28294705  0.70841207  0.11250177    -0.72500
O202        O  0.23611996  0.78498658  0.18213655    -0.72600
V203        V  0.23185097  0.74957854  0.08916887     1.35200
V204        V  0.25899870  0.74663255  0.14618703     1.35200
C205        C  0.21628184  0.80547351  0.16228508     0.76800
C206        C  0.27551202  0.69130069  0.07371493     0.76800
C207        C  0.21708009  0.68594191  0.15502839     0.76700
C208        C  0.27286567  0.81070050  0.08025211     0.76700
C209        C  0.80217427  0.84840731  0.24270394    -0.02500
C210        C  0.79422222  0.85111781  0.19417348     0.07200
C211        C  0.80142245  0.88940017  0.16748853    -0.02600
C212        C  0.81689985  0.92350802  0.18856391    -0.02600
C213        C  0.82756672  0.91803627  0.23519153     0.07300
C214        C  0.81993470  0.88061819  0.26226534    -0.02800
Br215      Br  0.83275758  0.87497429  0.32710021    -0.01400
Br216      Br  0.78782206  0.80272982  0.28386778    -0.01500
Br217      Br  0.82355256  0.97782700  0.15271315    -0.01400
Br218      Br  0.78851775  0.89761324  0.10270099    -0.01400
C219        C  0.82715563  0.15539543  0.31693484    -0.02500
C220        C  0.79849498  0.15188483  0.32192691     0.07200
C221        C  0.78611526  0.11042215  0.31446784    -0.02600
C222        C  0.80252438  0.07196567  0.30906138    -0.02600
C223        C  0.83066722  0.07544855  0.29555907     0.07300
C224        C  0.84311901  0.11777172  0.30285972    -0.02800
Br225      Br  0.88233792  0.12403418  0.30173746    -0.01400
Br226      Br  0.84436924  0.21235190  0.32824237    -0.01500
Br227      Br  0.78808285  0.01875733  0.33927371    -0.01400
Br228      Br  0.74660142  0.10474760  0.31539429    -0.01400
C229        C  0.15764302  0.88522225  0.19773466    -0.02500
C230        C  0.16911417  0.90696790  0.23790722     0.07200
C231        C  0.19402109  0.88971863  0.25685567    -0.02600
C232        C  0.21016780  0.85921984  0.23096849    -0.02600
C233        C  0.19946403  0.83897184  0.18930862     0.07300
C234        C  0.17226067  0.85028077  0.17487207    -0.02800
Br235      Br  0.15406910  0.81756609  0.12450746    -0.01400
Br236      Br  0.12215385  0.90155784  0.17220189    -0.01500
Br237      Br  0.24784701  0.85007210  0.25190296    -0.01400
Br238      Br  0.20526825  0.90521779  0.32050586    -0.01400
C239        C  0.19922642  0.06653270  0.32959923    -0.02500
C240        C  0.18387764  0.06778647  0.28606355     0.07200
C241        C  0.18887106  0.10404301  0.25472754    -0.02600
C242        C  0.20212036  0.14266438  0.27139408    -0.02600
C243        C  0.21375320  0.14351691  0.31729624     0.07300
C244        C  0.21367678  0.10435612  0.34514849    -0.02800
Br245      Br  0.23447003  0.10186459  0.40408343    -0.01400
Br246      Br  0.20221043  0.01296773  0.36831562    -0.01500
Br247      Br  0.20335743  0.19489777  0.23135213    -0.01400
Br248      Br  0.18526750  0.09778044  0.18692904    -0.01400
C249        C  0.05455582  0.98261214  0.16358787    -0.02500
C250        C  0.06149478  0.99488862  0.11722554     0.07200
C251        C  0.08806563  0.00957361  0.10726108    -0.02600
C252        C  0.10789956  0.01181361  0.14398699    -0.02600
C253        C  0.10070489  0.00231594  0.19184201     0.07300
C254        C  0.07370418  0.98687735  0.20084989    -0.02800
Br255      Br  0.06144781  0.96919976  0.26262994    -0.01400
Br256      Br  0.01849318  0.95868761  0.17575395    -0.01500
Br257      Br  0.14567352  0.01960890  0.12614600    -0.01400
Br258      Br  0.09765183  0.02312263  0.04236455    -0.01400
C259        C  0.08493171  0.01933433  0.35319905    -0.02500
C260        C  0.10429388  0.98376164  0.34917956     0.07200
C261        C  0.10174364  0.94563949  0.37811326    -0.02600
C262        C  0.08052786  0.94335278  0.41199531    -0.02600
C263        C  0.06047730  0.97836960  0.41513795     0.07300
C264        C  0.06234512  0.01540745  0.38366658    -0.02800
Br265      Br  0.03290508  0.05953044  0.37789008    -0.01400
Br266      Br  0.08778009  0.07270094  0.31418402    -0.01500
Br267      Br  0.08057963  0.89281298  0.45502189    -0.01400
Br268      Br  0.12843142  0.89756932  0.37262475    -0.01400
C269        C  0.89340999  0.96508933  0.40110097    -0.02500
C270        C  0.90006807  0.96145751  0.35225641     0.07200
C271        C  0.92797415  0.95280841  0.34026247    -0.02600
C272        C  0.94872241  0.95465152  0.37547919    -0.02600
C273        C  0.94198954  0.96446643  0.42267630     0.07300
C274        C  0.91430667  0.96859815  0.43573415    -0.02800
Br275      Br  0.90504630  0.98206963  0.50058643    -0.01400
Br276      Br  0.85552402  0.96453247  0.42116892    -0.01500
Br277      Br  0.98696182  0.94665595  0.35891946    -0.01400
Br278      Br  0.93939548  0.93823515  0.27699164    -0.01400
C279        C  0.92710975  0.95061248  0.12802487    -0.02500
C280        C  0.94698010  0.98426945  0.12382127     0.07200
C281        C  0.94717661  0.01944514  0.15720320    -0.02600
C282        C  0.92690034  0.02219776  0.19265999    -0.02600
C283        C  0.90512707  0.99117508  0.19420549     0.07300
C284        C  0.90636098  0.95397938  0.16263662    -0.02800
Br285      Br  0.88098991  0.90532791  0.16555556    -0.01400
Br286      Br  0.92775998  0.89943162  0.08574967    -0.01500
Br287      Br  0.93220458  0.06414338  0.24361441    -0.01400
Br288      Br  0.97672592  0.06214448  0.15735772    -0.01400
C289        C  0.80841113  0.42519652  0.31936795    -0.02500
C290        C  0.82102134  0.42245512  0.27405786     0.07200
C291        C  0.81443009  0.38486518  0.24547394    -0.02600
C292        C  0.80222879  0.34694856  0.26623183    -0.02600
C293        C  0.79455775  0.34755150  0.31438221     0.07300
C294        C  0.79716400  0.38724286  0.34058141    -0.02800
Br295      Br  0.78400734  0.39112271  0.40527368    -0.01400
Br296      Br  0.80156711  0.48189065  0.35003145    -0.01500
Br297      Br  0.79646501  0.29380938  0.22869789    -0.01400
Br298      Br  0.81362500  0.38877846  0.17697817    -0.01400
C299        C  0.81730030  0.66052316  0.21187350    -0.02500
C300        C  0.79785855  0.65547238  0.17511899     0.07200
C301        C  0.79295169  0.61299502  0.15598019    -0.02600
C302        C  0.80622299  0.57508125  0.17540642    -0.02600
C303        C  0.82450699  0.57962227  0.21472589     0.07300
C304        C  0.83017919  0.62262659  0.23248530    -0.02800
Br305      Br  0.85439859  0.62995600  0.28641679    -0.01400
Br306      Br  0.82752636  0.71951418  0.23176137    -0.01500
Br307      Br  0.80088603  0.51799014  0.14433802    -0.01400
Br308      Br  0.76862052  0.60698632  0.10188041    -0.01400
C309        C  0.17990289  0.62763970  0.14917012    -0.02500
C310        C  0.19943466  0.65084533  0.17717223     0.07200
C311        C  0.20085478  0.64142353  0.22660145    -0.02600
C312        C  0.18497654  0.60679728  0.24632554    -0.02600
C313        C  0.16585304  0.58336676  0.21810139     0.07300
C314        C  0.16217018  0.59652839  0.17026299    -0.02800
Br315      Br  0.13266382  0.57313833  0.13264623    -0.01400
Br316      Br  0.17853658  0.63412749  0.08062559    -0.01500
Br317      Br  0.18911862  0.59195380  0.31277694    -0.01400
Br318      Br  0.22359376  0.67640723  0.26867785    -0.01400
C319        C  0.18934375  0.42270733  0.32022986    -0.02500
C320        C  0.17816191  0.42376327  0.27326382     0.07200
C321        C  0.18793647  0.39064934  0.24145541    -0.02600
C322        C  0.20252934  0.35251228  0.25878565    -0.02600
C323        C  0.20774169  0.34716314  0.30801087     0.07300
C324        C  0.20183062  0.38346357  0.33839414    -0.02800
Br325      Br  0.21262265  0.38182171  0.40483047    -0.01400
Br326      Br  0.19163317  0.47642986  0.35857700    -0.01500
Br327      Br  0.21581538  0.30856954  0.21433317    -0.01400
Br328      Br  0.18727825  0.40130021  0.17402404    -0.01400
C329        C  0.04806998  0.50452150  0.14400891    -0.02500
C330        C  0.05454406  0.49079247  0.09798105     0.07200
C331        C  0.08114789  0.47524571  0.08786887    -0.02600
C332        C  0.10150127  0.47337258  0.12399069    -0.02600
C333        C  0.09561183  0.48819621  0.17098674     0.07300
C334        C  0.06843248  0.50482374  0.17989091    -0.02800
Br335      Br  0.05708042  0.53045887  0.23908014    -0.01400
Br336      Br  0.01052591  0.52258782  0.15758562    -0.01500
Br337      Br  0.13817367  0.45640744  0.10542789    -0.01400
Br338      Br  0.08994989  0.45951612  0.02315389    -0.01400
C339        C  0.07246412  0.54868870  0.38927416    -0.02500
C340        C  0.05506216  0.51114163  0.39490835     0.07200
C341        C  0.05847716  0.47402373  0.36398180    -0.02600
C342        C  0.07941608  0.47376648  0.32998831    -0.02600
C343        C  0.09684462  0.51107348  0.32487464     0.07300
C344        C  0.09279861  0.54877215  0.35376376    -0.02800
Br345      Br  0.11592973  0.60001927  0.34545352    -0.01400
Br346      Br  0.07059620  0.59933294  0.43173475    -0.01500
Br347      Br  0.08286767  0.42240893  0.28829733    -0.01400
Br348      Br  0.03435201  0.42280495  0.36554259    -0.01400
C349        C  0.89057531  0.52884349  0.37124697    -0.02500
C350        C  0.89754307  0.52549160  0.32273812     0.07200
C351        C  0.92573851  0.52727459  0.31071795    -0.02600
C352        C  0.94613628  0.52603506  0.34681164    -0.02600
C353        C  0.93862968  0.52188442  0.39475075     0.07300
C354        C  0.91077825  0.52404869  0.40689345    -0.02800
Br355      Br  0.89998141  0.51683536  0.47204812    -0.01400
Br356      Br  0.85373245  0.54424687  0.38931990    -0.01500
Br357      Br  0.98456098  0.52882199  0.33089283    -0.01400
Br358      Br  0.93743037  0.53212378  0.24604542    -0.01400
C359        C  0.91858251  0.53357060  0.10136882    -0.02500
C360        C  0.93842295  0.49894555  0.09718648     0.07200
C361        C  0.93731149  0.46167780  0.12832836    -0.02600
C362        C  0.91640836  0.45884917  0.16266745    -0.02600
C363        C  0.89545432  0.49223401  0.16487376     0.07300
C364        C  0.89664475  0.52913651  0.13313058    -0.02800
Br365      Br  0.86782766  0.57357480  0.12963300    -0.01400
Br366      Br  0.92103930  0.58822167  0.06419965    -0.01500
Br367      Br  0.91894800  0.41183066  0.21010419    -0.01400
Br368      Br  0.96609652  0.41638803  0.12778364    -0.01400
C369        C  0.68081495  0.59187926  0.06032057    -0.02500
C370        C  0.67540727  0.59379256  0.01087999     0.07200
C371        C  0.68814944  0.62722114  0.98384114    -0.02600
C372        C  0.70408195  0.66048743  0.00624910    -0.02600
C373        C  0.70609861  0.66229605  0.05672717     0.07300
C374        C  0.69424281  0.62724290  0.08347392    -0.02800
Br375      Br  0.69804211  0.62404798  0.15202094    -0.01400
Br376      Br  0.67238514  0.53860747  0.09652289    -0.01500
Br377      Br  0.72409616  0.70107248  0.96615443    -0.01400
Br378      Br  0.68643677  0.62402735  0.41540147    -0.01400
C379        C  0.70649256  0.39225963  0.39791080    -0.02500
C380        C  0.70878440  0.35526762  0.42900377     0.07200
C381        C  0.70044639  0.36014100  0.47654198    -0.02600
C382        C  0.68829195  0.40075673  0.49202298    -0.02600
C383        C  0.68227081  0.43569621  0.45889004     0.07300
C384        C  0.69517071  0.43298858  0.41379196    -0.02800
Br385      Br  0.70067552  0.48592695  0.37500936    -0.01400
Br386      Br  0.71953539  0.38823467  0.33327811    -0.01500
Br387      Br  0.68799198  0.41155091  0.55960704    -0.01400
Br388      Br  0.70491211  0.31064941  0.52043981    -0.01400
C389        C  0.29364338  0.39458669  0.39322940    -0.02500
C390        C  0.29295800  0.35637657  0.42246836     0.07200
C391        C  0.30243030  0.35906961  0.46974457    -0.02600
C392        C  0.31485877  0.39855350  0.48636448    -0.02600
C393        C  0.31965783  0.43469354  0.45468764     0.07300
C394        C  0.30547418  0.43417849  0.41008468    -0.02800
Br395      Br  0.30007151  0.48790314  0.37216257    -0.01400
Br396      Br  0.27774756  0.39332215  0.32996472    -0.01500
Br397      Br  0.31809365  0.40574689  0.05404268    -0.01400
Br398      Br  0.29902012  0.30801027  0.51156679    -0.01400
C399        C  0.33632907  0.61221827  0.04713486    -0.02500
C400        C  0.32963609  0.59623970  0.00151301     0.07200
C401        C  0.30714242  0.61631817  0.97711277    -0.02600
C402        C  0.29015863  0.64857011  0.99947464    -0.02600
C403        C  0.29441872  0.65937554  0.04809577     0.07300
C404        C  0.31804927  0.64077318  0.07157675    -0.02800
Br405      Br  0.32555691  0.64998951  0.13870393    -0.01400
Br406      Br  0.37110881  0.59766468  0.07644812    -0.01500
Br407      Br  0.26163706  0.67764337  0.96169687    -0.01400
Br408      Br  0.30027456  0.60091770  0.91168042    -0.01400
C409        C  0.41922825  0.55816378  0.32415719    -0.02500
C410        C  0.43957702  0.52362260  0.32270646     0.07200
C411        C  0.43797677  0.48764651  0.35557056    -0.02600
C412        C  0.41641741  0.48592199  0.38833301    -0.02600
C413        C  0.39716093  0.52177004  0.39153699     0.07300
C414        C  0.39861508  0.55765920  0.35921877    -0.02800
Br415      Br  0.37116929  0.60472694  0.36133317    -0.01400
Br416      Br  0.41753040  0.60437359  0.27594464    -0.01500
Br417      Br  0.41445273  0.43448687  0.93046754    -0.01400
Br418      Br  0.46569625  0.44060291  0.35859523    -0.01400
C419        C  0.44893561  0.52317457  0.07487745    -0.02500
C420        C  0.44257948  0.51155349  0.12169845     0.07200
C421        C  0.41610870  0.49667869  0.13246080    -0.02600
C422        C  0.39581042  0.49383381  0.09643002    -0.02600
C423        C  0.40191583  0.50499681  0.04845436     0.07300
C424        C  0.42881025  0.52081690  0.03860575    -0.02800
Br425      Br  0.43964923  0.54130294  0.47699152    -0.01400
Br426      Br  0.48598412  0.54147858  0.06067541    -0.01500
Br427      Br  0.35871099  0.48179489  0.11568761    -0.01400
Br428      Br  0.40738590  0.48251004  0.19760198    -0.01400
C429        C  0.57239430  0.56921536  0.34261735    -0.02500
C430        C  0.55713680  0.53017301  0.33148108     0.07200
C431        C  0.56296915  0.49066774  0.35825269    -0.02600
C432        C  0.58560704  0.48833731  0.38967730    -0.02600
C433        C  0.60170266  0.52664881  0.39934369     0.07300
C434        C  0.59411991  0.56743732  0.37679175    -0.02800
Br435      Br  0.61447838  0.62080751  0.39043342    -0.01400
Br436      Br  0.56427666  0.62594572  0.31188070    -0.01500
Br437      Br  0.59398010  0.43045574  0.41785604    -0.01400
Br438      Br  0.53944462  0.43866384  0.35554988    -0.01400
C439        C  0.57755969  0.55413829  0.11757835    -0.02500
C440        C  0.55949482  0.51833469  0.12475656     0.07200
C441        C  0.56238865  0.47985042  0.09613176    -0.02600
C442        C  0.58433181  0.47562245  0.06384425    -0.02600
C443        C  0.60183506  0.51251912  0.05403832     0.07300
C444        C  0.59699748  0.55276572  0.08049806    -0.02800
Br445      Br  0.61574431  0.60817625  0.06885987    -0.01400
Br446      Br  0.57727012  0.60455660  0.16088231    -0.01500
Br447      Br  0.58853629  0.41778524  0.03427003    -0.01400
Br448      Br  0.53504456  0.43315968  0.09818825    -0.01400
C449        C  0.71811373  0.11491799  0.44918454    -0.02500
C450        C  0.70719528  0.15831419  0.44493450     0.07200
C451        C  0.67933218  0.16629259  0.45508351    -0.02600
C452        C  0.66259417  0.13103891  0.47111190    -0.02600
C453        C  0.67355857  0.08661860  0.47555584     0.07300
C454        C  0.70058675  0.07900419  0.45741615    -0.02800
Br455      Br  0.71169767  0.02304904  0.42776767    -0.01400
Br456      Br  0.75692276  0.10378764  0.44037078    -0.01500
Br457      Br  0.62395082  0.14417767  0.47811709    -0.01400
Br458      Br  0.66422943  0.22600499  0.44638592    -0.01400
C459        C  0.70041012  0.89631551  0.10191934    -0.02500
C460        C  0.70159145  0.85554872  0.07729896     0.07200
C461        C  0.68605691  0.85003823  0.03552393    -0.02600
C462        C  0.67050299  0.88599456  0.01666301    -0.02600
C463        C  0.67102762  0.92826235  0.03884549     0.07300
C464        C  0.68555129  0.93280163  0.08250183    -0.02800
Br465      Br  0.68534996  0.98834088  0.11703065    -0.01400
Br466      Br  0.71971481  0.90244983  0.16187186    -0.01500
Br467      Br  0.64931339  0.87651117  0.95983411    -0.01400
Br468      Br  0.68532952  0.79249787  0.00506375    -0.01400
C469        C  0.33102266  0.87594833  0.02574187    -0.02500
C470        C  0.31959536  0.92047654  0.02137813     0.07200
C471        C  0.29233880  0.92710260  0.03971961    -0.02600
C472        C  0.27669086  0.89042395  0.05536363    -0.02600
C473        C  0.28843689  0.84748516  0.05848611     0.07300
C474        C  0.31538558  0.84016411  0.04340794    -0.02800
Br475      Br  0.33077189  0.78007146  0.04750245    -0.01400
Br476      Br  0.36936845  0.86237333  0.51490626    -0.01500
Br477      Br  0.23913288  0.89892577  0.07637770    -0.01400
Br478      Br  0.27658376  0.98458552  0.05571113    -0.01400
C479        C  0.29683870  0.14124168  0.48356750    -0.02500
C480        C  0.30454316  0.16213778  0.44030412     0.07200
C481        C  0.33100325  0.15158591  0.42217596    -0.02600
C482        C  0.34663914  0.11523226  0.44115100    -0.02600
C483        C  0.33557601  0.08815870  0.47771410     0.07300
C484        C  0.31303368  0.10595080  0.50276794    -0.02800
Br485      Br  0.30735446  0.08660641  0.06736003    -0.01400
Br486      Br  0.26439455  0.15914939  0.51823755    -0.01500
Br487      Br  0.38413287  0.10875771  0.42026908    -0.01400
Br488      Br  0.34734927  0.18827878  0.37324872    -0.01400
C489        C  0.44718580  0.02083654  0.10511834    -0.02500
C490        C  0.44097269  0.00272498  0.14978803     0.07200
C491        C  0.41388087  0.99144167  0.16021375    -0.02600
C492        C  0.39293900  0.00060256  0.12704057    -0.02600
C493        C  0.39944774  0.00968814  0.07885871     0.07300
C494        C  0.42716360  0.02141501  0.06847844    -0.02800
Br495      Br  0.44016465  0.03683994  0.00603627    -0.01400
Br496      Br  0.48373678  0.04296187  0.09389789    -0.01500
Br497      Br  0.35571462  0.00579854  0.15028922    -0.01400
Br498      Br  0.40532718  0.96140753  0.21889517    -0.01400
C499        C  0.42172553  0.95648767  0.42441618    -0.02500
C500        C  0.39703266  0.98110046  0.41774428     0.07200
C501        C  0.39252163  0.00445710  0.37488478    -0.02600
C502        C  0.41430426  0.01035747  0.34304780    -0.02600
C503        C  0.43907027  0.98564615  0.34933983     0.07300
C504        C  0.44220516  0.95728367  0.38937813    -0.02800
Br505      Br  0.47522519  0.92140048  0.39797819    -0.01400
Br506      Br  0.42776153  0.92170847  0.98149274    -0.01500
Br507      Br  0.41003965  0.05357447  0.29230531    -0.01400
Br508      Br  0.35577690  0.02386332  0.35745501    -0.03800
C509        C  0.55351818  0.00690842  0.39460044    -0.02500
C510        C  0.55699285  0.98158520  0.35309663     0.07200
C511        C  0.58231742  0.95964255  0.34470477    -0.02600
C512        C  0.60404001  0.96304182  0.37802027    -0.02600
C513        C  0.60034249  0.98736000  0.42051664     0.07300
C514        C  0.57553834  0.01216347  0.42643697    -0.02800
Br515      Br  0.57179608  0.05806724  0.47404227    -0.01400
Br516      Br  0.51822119  0.03445657  0.40828096    -0.01500
Br517      Br  0.64005297  0.94113079  0.36119235    -0.01400
Br518      Br  0.58815860  0.92841856  0.28561798    -0.01400
C519        C  0.58160827  0.02221120  0.15972747    -0.02500
C520        C  0.55799322  0.99661450  0.15212910     0.07200
C521        C  0.55453162  0.97419055  0.10883034    -0.02600
C522        C  0.57378552  0.97910509  0.07200687    -0.02600
C523        C  0.59744034  0.00703550  0.07795602     0.07300
C524        C  0.60106976  0.02780578  0.12328839    -0.02800
Br525      Br  0.63297017  0.06252494  0.13958182    -0.01400
Br526      Br  0.58830348  0.04683309  0.22231710    -0.01500
Br527      Br  0.56460533  0.94740999  0.01431178    -0.01400
Br528      Br  0.52236342  0.93729140  0.09931664    -0.01400
O529        O  0.52643451  0.02200913  0.80236431    -0.72500
O530        O  0.47201566  0.03262236  0.70614688    -0.72700
O531        O  0.47115601  0.02488315  0.80102004    -0.72500
O532        O  0.52706538  0.02971921  0.70774084    -0.72500
O533        O  0.52673305  0.95724320  0.70204349    -0.72500
O534        O  0.47044945  0.95245599  0.79454251    -0.72500
O535        O  0.47134591  0.96008508  0.69961267    -0.72500
O536        O  0.52583351  0.94946519  0.79684643    -0.72600
V537        V  0.49916933  0.02585507  0.75426356     1.35200
V538        V  0.49858227  0.95619002  0.74835620     1.35200
C539        C  0.53552208  0.98417061  0.81586324     0.76800
C540        C  0.46239875  0.99819865  0.68661614     0.76800
C541        C  0.46113109  0.98783825  0.81345531     0.76700
C542        C  0.53646502  0.99433449  0.68902682     0.76700
C543        C  0.33879487  0.95985686  0.50677962     0.85800
C544        C  0.32632612  0.00671826  0.99474736    -0.54400
C545        C  0.34491006  0.04048409  0.98869882     0.08700
C546        C  0.37471461  0.02309206  0.99224587     0.19700
C547        C  0.35716213  0.95164131  0.96328460    -0.55100
C548        C  0.37637083  0.98394775  0.95615493     0.08800
C549        C  0.35910947  0.96756020  0.54758230    -0.54700
C550        C  0.37779077  0.00069411  0.54136194     0.09400
H551        H  0.30509183  0.01239654  0.98506687     0.13900
H552        H  0.38927405  0.04984991  0.98714024    -0.00300
H553        H  0.35528005  0.92282735  0.94012508     0.14200
H554        H  0.35950663  0.94565679  0.57845443     0.14000
C555        C  0.65565684  0.04630031  0.98962462     0.85800
C556        C  0.63973422  0.03042834  0.94637829    -0.54400
C557        C  0.62396107  0.99420509  0.95382830     0.08700
C558        C  0.62715602  0.97423983  0.50504605     0.19700
C559        C  0.63355031  0.05109581  0.52933502    -0.55100
C560        C  0.61865814  0.01258872  0.53861604     0.08800
C561        C  0.67254238  0.00595316  0.50768858    -0.54700
C562        C  0.65809016  0.96822502  0.51523787     0.09400
H563        H  0.63858561  0.04970616  0.91354263     0.13900
H564        H  0.61696042  0.94211128  0.51087628    -0.00300
H565        H  0.63020988  0.08207515  0.54809613     0.14200
H566        H  0.69411481  0.00787351  0.51746848     0.14000
O567        O  0.53021175  0.48535839  0.68298580    -0.72500
O568        O  0.47207122  0.48758503  0.77139585    -0.72700
O569        O  0.47499912  0.48121554  0.67732770    -0.72500
O570        O  0.52727763  0.49163050  0.77706511    -0.72500
O571        O  0.52665225  0.56348504  0.77063820    -0.72500
O572        O  0.47104506  0.55376959  0.67427905    -0.72500
O573        O  0.47137418  0.55997853  0.76996880    -0.72500
O574        O  0.52627580  0.55711660  0.67395304    -0.72600
V575        V  0.50113194  0.48792242  0.72716634     1.35200
V576        V  0.49892598  0.55736004  0.72221265     1.35200
C577        C  0.53781445  0.52054303  0.66218069     0.76800
C578        C  0.46189889  0.52392093  0.78650208     0.76800
C579        C  0.46367121  0.51572225  0.65949234     0.76700
C580        C  0.53607679  0.52879876  0.79154796     0.76700
C581        C  0.33988894  0.47303275  0.96545406     0.85800
C582        C  0.35676715  0.48382227  0.92148343    -0.54400
C583        C  0.37405190  0.51869884  0.92579863     0.08700
C584        C  0.37256149  0.54165753  0.47524704     0.19700
C585        C  0.36265615  0.46678648  0.50430419    -0.55100
C586        C  0.37955022  0.50311224  0.51054456     0.08800
C587        C  0.32514475  0.51663464  0.47855786    -0.54700
C588        C  0.34170138  0.55279274  0.48388858     0.09400
H589        H  0.35722303  0.46216172  0.89049261     0.13900
H590        H  0.38569790  0.57146876  0.47867345    -0.00300
H591        H  0.36645716  0.43576562  0.52346268     0.14200
H592        H  0.30313520  0.51840619  0.48458797     0.14000
C593        C  0.66269421  0.47576302  0.96922602     0.85800
C594        C  0.67832544  0.51795250  0.47994479    -0.54400
C595        C  0.66234678  0.55486960  0.48676851     0.08700
C596        C  0.63072761  0.54621946  0.48003759     0.19700
C597        C  0.64151515  0.47222381  0.51039376    -0.55100
C598        C  0.62442290  0.50910106  0.51659707     0.08800
C599        C  0.64455181  0.48749772  0.92595922    -0.54700
C600        C  0.62685897  0.52265890  0.93130810     0.09400
H601        H  0.70044932  0.51785914  0.48574749     0.13900
H602        H  0.61742296  0.57628795  0.48231097    -0.00300
H603        H  0.64002441  0.44285664  0.53275068     0.14200
H604        H  0.64402928  0.46667005  0.89439304     0.14000
O605        O  0.02487677  0.47293050  0.94790836    -0.72500
O606        O  0.96709448  0.46713314  0.53690276    -0.72700
O607        O  0.96967523  0.47760904  0.94197579    -0.72500
O608        O  0.02231718  0.46222749  0.54179807    -0.72500
O609        O  0.02637788  0.53454144  0.54575771    -0.72500
O610        O  0.96852312  0.54927303  0.95523040    -0.72500
O611        O  0.97152672  0.53807140  0.55037137    -0.72500
O612        O  0.02352913  0.54515904  0.95062295    -0.72600
V613        V  0.99597158  0.47129373  0.99223920     1.35200
V614        V  0.99745201  0.54046972  0.00038086     1.35200
C615        C  0.03366543  0.50987966  0.93277474     0.76800
C616        C  0.95997459  0.50149707  0.56008598     0.76800
C617        C  0.95983385  0.51602462  0.93219987     0.76700
C618        C  0.03371620  0.49593075  0.55994193     0.76700
C619        C  0.15739621  0.46132006  0.75869687     0.85800
C620        C  0.13885928  0.47340938  0.80027327    -0.54400
C621        C  0.12097129  0.50778259  0.79270209     0.08700
C622        C  0.12346037  0.52882495  0.74229715     0.19700
C623        C  0.13593267  0.45303044  0.71825495    -0.55100
C624        C  0.11816920  0.48871723  0.70882494     0.08800
C625        C  0.17154769  0.50456406  0.74468296    -0.54700
C626        C  0.15431674  0.54003028  0.73578577     0.09400
H627        H  0.13759583  0.45254176  0.83191557     0.13900
H628        H  0.10998535  0.55845416  0.73587729    -0.00300
H629        H  0.13372467  0.42104122  0.70078271     0.14200
H630        H  0.19366431  0.50669125  0.74106803     0.14000
C631        C  0.83992914  0.46076360  0.75819567     0.85800
C632        C  0.82318777  0.50293187  0.74719528    -0.54400
C633        C  0.83815308  0.53925446  0.73561994     0.08700
C634        C  0.86959510  0.53077676  0.73789127     0.19700
C635        C  0.85894370  0.45452286  0.71463637    -0.55100
C636        C  0.87436511  0.49130247  0.70360264     0.08800
C637        C  0.86033657  0.47417501  0.79752108    -0.54700
C638        C  0.87583451  0.51089934  0.78783533     0.09400
H639        H  0.80087133  0.50341213  0.74636695     0.13900
H640        H  0.88183914  0.56071814  0.72941102    -0.00300
H641        H  0.86164969  0.42340390  0.69576409     0.14200
H642        H  0.86276414  0.45522530  0.83033057     0.14000
O643        O  0.97298038  0.00879743  0.96772129    -0.72500
O644        O  0.02878461  0.02364939  0.56141557    -0.72700
O645        O  0.02841694  0.01469010  0.96722048    -0.72500
O646        O  0.97374703  0.01771020  0.56245364    -0.72500
O647        O  0.97941206  0.94625068  0.57336689    -0.72500
O648        O  0.03003714  0.94238553  0.97084664    -0.72500
O649        O  0.03408677  0.95129270  0.56567651    -0.72500
O650        O  0.97502291  0.93668621  0.97858528    -0.72600
V651        V  0.00103398  0.01483122  0.01469090     1.35200
V652        V  0.00456404  0.94549334  0.02193094     1.35200
C653        C  0.96409659  0.97025546  0.95811294     0.76800
C654        C  0.04095886  0.98985212  0.57920859     0.76800
C655        C  0.03864093  0.97822547  0.95240754     0.76700
C656        C  0.96760760  0.98260226  0.58500163     0.76700
C657        C  0.16251956  0.03101584  0.77551642     0.85800
C658        C  0.17604449  0.98652372  0.76157030    -0.54400
C659        C  0.15854014  0.95141205  0.75603954     0.08700
C660        C  0.12822545  0.96467538  0.76546922     0.19700
C661        C  0.13987210  0.03901320  0.73688335    -0.55100
C662        C  0.12229026  0.00369040  0.73050059     0.08800
C663        C  0.14542055  0.02115611  0.81956601    -0.54700
C664        C  0.12735960  0.98732462  0.81492893     0.09400
H665        H  0.19791429  0.98364992  0.75468886     0.13900
H666        H  0.11424437  0.93594538  0.76249214    -0.00300
H667        H  0.13680977  0.07007070  0.71757445     0.14200
H668        H  0.14560105  0.04246237  0.85076630     0.14000
C669        C  0.84761400  0.03319647  0.78120661     0.85800
C670        C  0.86467515  0.01578976  0.82317524    -0.54400
C671        C  0.87905064  0.97688090  0.81580169     0.08700
C672        C  0.87429898  0.95780602  0.76529023     0.19700
C673        C  0.86853606  0.03578954  0.73979314    -0.55100
C674        C  0.88290236  0.99613158  0.73133264     0.08800
C675        C  0.82961713  0.99455253  0.76519675    -0.54700
C676        C  0.84283488  0.95522816  0.75780342     0.09400
H677        H  0.86670259  0.03515103  0.85560506     0.13900
H678        H  0.88482251  0.92523252  0.75990135    -0.00300
H679        H  0.87148034  0.06587217  0.71882357     0.14200
H680        H  0.80831752  0.99902461  0.75433947     0.14000
O681        O  0.78795855  0.20552814  0.88188834    -0.72500
O682        O  0.74428199  0.29918288  0.93479234    -0.72700
O683        O  0.74462600  0.20901194  0.94098149    -0.72500
O684        O  0.78737794  0.29501270  0.87659330    -0.72500
O685        O  0.75930581  0.29313037  0.81622724    -0.72500
O686        O  0.71721365  0.20575528  0.87971064    -0.72500
O687        O  0.71630528  0.29549601  0.87443906    -0.72500
O688        O  0.76053905  0.20346532  0.82063205    -0.72600
V689        V  0.76550466  0.25199739  0.90744157     1.35200
V690        V  0.73887255  0.24933288  0.84898667     1.35200
C691        C  0.78186870  0.18900972  0.84189475     0.76800
C692        C  0.72331894  0.31424239  0.91275801     0.76800
C693        C  0.72357786  0.19287481  0.92126361     0.76700
C694        C  0.78020937  0.30958123  0.83608853     0.76700
O695        O  0.71416699  0.79991654  0.63401354    -0.72500
O696        O  0.76028297  0.70622853  0.68075293    -0.72700
O697        O  0.75856355  0.79599041  0.69056571    -0.72500
O698        O  0.71573481  0.71075968  0.62317508    -0.72500
O699        O  0.74256283  0.71612111  0.56275936    -0.72500
O700        O  0.78448002  0.80283634  0.62884815    -0.72500
O701        O  0.78693787  0.71343506  0.61972783    -0.72500
O702        O  0.73996422  0.80589090  0.57175193    -0.72600
V703        V  0.73772435  0.75321284  0.65596736     1.35200
V704        V  0.76297724  0.75955294  0.59696916     1.35200
C705        C  0.71926664  0.81882968  0.59503160     0.76800
C706        C  0.78131741  0.69383168  0.65815927     0.76800
C707        C  0.77852860  0.81481364  0.67060364     0.76700
C708        C  0.72197669  0.69819735  0.58166461     0.76700
O709        O  0.28768691  0.29658750  0.86728494    -0.72500
O710        O  0.24680117  0.20190064  0.81258369    -0.72700
O711        O  0.24458810  0.29275670  0.80845403    -0.72500
O712        O  0.29005194  0.20626751  0.87204618    -0.72500
O713        O  0.26453063  0.21113311  0.93400261    -0.72500
O714        O  0.21587577  0.29009578  0.86677640    -0.72500
O715        O  0.22123551  0.20012242  0.87533015    -0.72500
O716        O  0.25876999  0.30023784  0.92545601    -0.72600
V717        V  0.26674248  0.24925072  0.84115455     1.35200
V718        V  0.24054211  0.25023538  0.89915145     1.35200
C719        C  0.27954029  0.31558870  0.90476532     0.76800
C720        C  0.22762929  0.18388320  0.83546115     0.76800
C721        C  0.22292249  0.30746399  0.82772280     0.76700
C722        C  0.28570353  0.19480118  0.91461853     0.76700
O723        O  0.21143844  0.79649060  0.61905423    -0.72500
O724        O  0.25194347  0.70277152  0.55785025    -0.72700
O725        O  0.20890340  0.70698569  0.61842723    -0.72500
O726        O  0.25335893  0.79287007  0.55776162    -0.72500
O727        O  0.27838762  0.79680833  0.62191565    -0.72500
O728        O  0.24036542  0.69618523  0.67200680    -0.72500
O729        O  0.28294810  0.70841679  0.61249442    -0.72500
O730        O  0.23612031  0.78498548  0.68213360    -0.72600
V731        V  0.23184940  0.74957676  0.58916708     1.35200
V732        V  0.25899937  0.74663436  0.64618209     1.35200
C733        C  0.21628160  0.80547173  0.66228331     0.76800
C734        C  0.27551024  0.69129983  0.57371191     0.76800
C735        C  0.21708268  0.68594123  0.65503086     0.76700
C736        C  0.27286214  0.81070177  0.58024371     0.76700
C737        C  0.80217454  0.84840514  0.74270294    -0.02500
C738        C  0.79422211  0.85111640  0.69417276     0.07200
C739        C  0.80142249  0.88939876  0.66748794    -0.02600
C740        C  0.81689949  0.92350675  0.68856386    -0.02600
C741        C  0.82756689  0.91803415  0.73519100     0.07300
C742        C  0.81993553  0.88061524  0.76226412    -0.02800
Br743      Br  0.83276037  0.87496865  0.82709759    -0.01400
Br744      Br  0.78782228  0.80272750  0.78386659    -0.01500
Br745      Br  0.82355110  0.97782683  0.65271430    -0.01400
Br746      Br  0.78851924  0.89761115  0.60269945    -0.01400
C747        C  0.82715900  0.15539252  0.81693743    -0.02500
C748        C  0.79849823  0.15188308  0.82192900     0.07200
C749        C  0.78611800  0.11042086  0.81446915    -0.02600
C750        C  0.80252661  0.07196373  0.80906304    -0.02600
C751        C  0.83066964  0.07544547  0.79556178     0.07300
C752        C  0.84312202  0.11776805  0.80286310    -0.02800
Br753      Br  0.88234111  0.12402849  0.80174303    -0.01400
Br754      Br  0.84437320  0.21234872  0.82824344    -0.01500
Br755      Br  0.78808403  0.01875579  0.83927454    -0.01400
Br756      Br  0.74660405  0.10474780  0.81539284    -0.01400
C757        C  0.15764112  0.88521252  0.69774083    -0.02500
C758        C  0.16911362  0.90696008  0.73791119     0.07200
C759        C  0.19402199  0.88971341  0.75685641    -0.02600
C760        C  0.21016892  0.85921751  0.73096637    -0.02600
C761        C  0.19946376  0.83896790  0.68930868     0.07300
C762        C  0.17225897  0.85027210  0.67487702    -0.02800
Br763      Br  0.15406597  0.81755152  0.62451840    -0.01400
Br764      Br  0.12215021  0.90154372  0.67221221    -0.01500
Br765      Br  0.24785007  0.85007655  0.75189318    -0.01400
Br766      Br  0.20527136  0.90521275  0.82050548    -0.01400
C767        C  0.19922646  0.06652662  0.82960034    -0.02500
C768        C  0.18387824  0.06777851  0.78606409     0.07200
C769        C  0.18887331  0.10403212  0.75472538    -0.02600
C770        C  0.20212285  0.14265418  0.77138967    -0.02600
C771        C  0.21375389  0.14351007  0.81729320     0.07300
C772        C  0.21367694  0.10435061  0.84514775    -0.02800
Br773      Br  0.23447040  0.10186110  0.90408254    -0.01400
Br774      Br  0.20220975  0.01296322  0.86831947    -0.01500
Br775      Br  0.20336338  0.19488304  0.73134187    -0.01400
Br776      Br  0.18527140  0.09776343  0.68692730    -0.01400
C777        C  0.05455641  0.98260432  0.66358855    -0.02500
C778        C  0.06149585  0.99488086  0.61722644     0.07200
C779        C  0.08806727  0.00956322  0.60726223    -0.02600
C780        C  0.10790101  0.01180202  0.64398845    -0.02600
C781        C  0.10070560  0.00230643  0.69184350     0.07300
C782        C  0.07370460  0.98686880  0.70085098    -0.02800
Br783      Br  0.06144776  0.96919093  0.76263073    -0.01400
Br784      Br  0.01849356  0.95868025  0.67575357    -0.01500
Br785      Br  0.14567549  0.01959238  0.62614824    -0.01400
Br786      Br  0.09765438  0.02311024  0.54236567    -0.01400
C787        C  0.08493109  0.01932838  0.85319876    -0.02500
C788        C  0.10429377  0.98375628  0.84918164     0.07200
C789        C  0.10174390  0.94563522  0.87811703    -0.02600
C790        C  0.08052776  0.94334897  0.91199836    -0.02600
C791        C  0.06047670  0.97836525  0.91513877     0.07300
C792        C  0.06234429  0.01540194  0.88366577    -0.02800
Br793      Br  0.03290380  0.05952383  0.87788638    -0.01400
Br794      Br  0.08777928  0.07269349  0.81418137    -0.01500
Br795      Br  0.08057969  0.89281053  0.95502677    -0.01400
Br796      Br  0.12843276  0.89756620  0.87263193    -0.01400
C797        C  0.89340967  0.96508078  0.90110149    -0.02500
C798        C  0.90006804  0.96144898  0.85225710     0.07200
C799        C  0.92797400  0.95279802  0.84026376    -0.02600
C800        C  0.94872202  0.95463934  0.87548112    -0.02600
C801        C  0.94198906  0.96445666  0.92267764     0.07300
C802        C  0.91430616  0.96859021  0.93573484    -0.02800
Br803      Br  0.90504548  0.98206579  0.00058600    -0.01400
Br804      Br  0.85552359  0.96452371  0.92116871    -0.01500
Br805      Br  0.98696128  0.94663845  0.85892301    -0.01400
Br806      Br  0.93939558  0.93822613  0.77699266    -0.01400
C807        C  0.92711051  0.95061112  0.62802442    -0.02500
C808        C  0.94698139  0.98426747  0.62382229     0.07200
C809        C  0.94717868  0.01944140  0.65720635    -0.02600
C810        C  0.92690261  0.02219311  0.69266357    -0.02600
C811        C  0.90512861  0.99117174  0.69420710     0.07300
C812        C  0.90636168  0.95397766  0.66263611    -0.02800
Br813      Br  0.88098901  0.90532834  0.66555170    -0.01400
Br814      Br  0.92776013  0.89943152  0.58574753    -0.01500
Br815      Br  0.93220780  0.06413535  0.74362089    -0.01400
Br816      Br  0.97672874  0.06213934  0.65736313    -0.01400
C817        C  0.80841568  0.42519583  0.81937153    -0.02500
C818        C  0.82102465  0.42245490  0.77406029     0.07200
C819        C  0.81443315  0.38486460  0.74547706    -0.02600
C820        C  0.80223266  0.34694766  0.76623580    -0.02600
C821        C  0.79456186  0.34755074  0.81438629     0.07300
C822        C  0.79716855  0.38724214  0.84058535    -0.02800
Br823      Br  0.78401234  0.39112190  0.90527794    -0.01400
Br824      Br  0.80157366  0.48188957  0.85003685    -0.01500
Br825      Br  0.79646991  0.29380759  0.72870280    -0.01400
Br826      Br  0.81362671  0.38877736  0.67698125    -0.01400
C827        C  0.81729937  0.66052284  0.71186903    -0.02500
C828        C  0.79785591  0.65547133  0.67511743     0.07200
C829        C  0.79294820  0.61299357  0.65598030    -0.02600
C830        C  0.80622051  0.57508014  0.67540542    -0.02600
C831        C  0.82450639  0.57962185  0.71472216     0.07300
C832        C  0.83017932  0.62262670  0.73247978    -0.02800
Br833      Br  0.85440120  0.62995801  0.78640751    -0.01400
Br834      Br  0.82752614  0.71951441  0.73175423    -0.01500
Br835      Br  0.80088208  0.51798843  0.64433905    -0.01400
Br836      Br  0.76861474  0.60698395  0.60188377    -0.01400
C837        C  0.17990355  0.62764226  0.64918004    -0.02500
C838        C  0.19943832  0.65084503  0.67717832     0.07200
C839        C  0.20086095  0.64142280  0.72660733    -0.02600
C840        C  0.18498206  0.60679842  0.74633415    -0.02600
C841        C  0.16585472  0.58337189  0.71811369     0.07300
C842        C  0.16216880  0.59653667  0.67027687    -0.02800
Br843      Br  0.13265348  0.57316432  0.63266890    -0.01400
Br844      Br  0.17853610  0.63412455  0.58063504    -0.01500
Br845      Br  0.18912730  0.59195395  0.81278476    -0.01400
Br846      Br  0.22360439  0.67640317  0.76867953    -0.01400
C847        C  0.18934589  0.42270674  0.82023115    -0.02500
C848        C  0.17816356  0.42376423  0.77326546     0.07200
C849        C  0.18793475  0.39064768  0.74145714    -0.02600
C850        C  0.20252509  0.35250811  0.75878729    -0.02600
C851        C  0.20773926  0.34715967  0.80801201     0.07300
C852        C  0.20183087  0.38346129  0.83839516    -0.02800
Br853      Br  0.21262287  0.38181756  0.90483144    -0.01400
Br854      Br  0.19163623  0.47642820  0.85857973    -0.01500
Br855      Br  0.21580395  0.30855941  0.71433541    -0.01400
Br856      Br  0.18727694  0.40129807  0.67402553    -0.01400
C857        C  0.04807394  0.50452986  0.64401042    -0.02500
C858        C  0.05454998  0.49080824  0.59798079     0.07200
C859        C  0.08115541  0.47526896  0.58786796    -0.02600
C860        C  0.10150765  0.47339241  0.62399167    -0.02600
C861        C  0.09561549  0.48820574  0.67099019     0.07300
C862        C  0.06843524  0.50482838  0.67989464    -0.02800
Br863      Br  0.05708076  0.53045124  0.73908824    -0.01400
Br864      Br  0.01052920  0.52259249  0.65758629    -0.01500
Br865      Br  0.13818230  0.45643845  0.60543041    -0.01400
Br866      Br  0.08996118  0.45955576  0.52315019    -0.01400
C867        C  0.07246526  0.54868021  0.88928451    -0.02500
C868        C  0.05506236  0.51113368  0.89491439     0.07200
C869        C  0.05847873  0.47401633  0.86398751    -0.02600
C870        C  0.07941812  0.47376095  0.82999485    -0.02600
C871        C  0.09684623  0.51106882  0.82488321     0.07300
C872        C  0.09280052  0.54876530  0.85377550    -0.02800
Br873      Br  0.11593393  0.60001085  0.84547258    -0.01400
Br874      Br  0.07059824  0.59932060  0.93175039    -0.01500
Br875      Br  0.08287094  0.42240487  0.78830196    -0.01400
Br876      Br  0.03435551  0.42279508  0.86554752    -0.01400
C877        C  0.89057473  0.52885648  0.87124064    -0.02500
C878        C  0.89754349  0.52549969  0.82273278     0.07200
C879        C  0.92573919  0.52727817  0.81071424    -0.02600
C880        C  0.94613609  0.52603722  0.84680923    -0.02600
C881        C  0.93862813  0.52188925  0.89474795     0.07300
C882        C  0.91077648  0.52405943  0.90688878    -0.02800
Br883      Br  0.89997733  0.51684956  0.97204262    -0.01400
Br884      Br  0.85373249  0.54426936  0.88930891    -0.01500
Br885      Br  0.98456130  0.52881860  0.83089280    -0.01400
Br886      Br  0.93743210  0.53212368  0.74604210    -0.01400
C887        C  0.91858359  0.53357071  0.60136635    -0.02500
C888        C  0.93842625  0.49894849  0.59718733     0.07200
C889        C  0.93731514  0.46168090  0.62832964    -0.02600
C890        C  0.91641072  0.45885009  0.66266634    -0.02600
C891        C  0.89545533  0.49223286  0.66487038     0.07300
C892        C  0.89664466  0.52913400  0.63312543    -0.02800
Br893      Br  0.86782359  0.57356509  0.62962071    -0.01400
Br894      Br  0.92103872  0.58822143  0.56419639    -0.01500
Br895      Br  0.91894989  0.41183088  0.71010232    -0.01400
Br896      Br  0.96610222  0.41639451  0.62778910    -0.01400
C897        C  0.68081342  0.59188163  0.56031893    -0.02500
C898        C  0.67540642  0.59379454  0.51087812     0.07200
C899        C  0.68814868  0.62722311  0.48383950    -0.02600
C900        C  0.70408076  0.66048961  0.50624780    -0.02600
C901        C  0.70609643  0.66229882  0.55672593     0.07300
C902        C  0.69424013  0.62724612  0.58347261    -0.02800
Br903      Br  0.69803689  0.62405299  0.65202017    -0.01400
Br904      Br  0.67238481  0.53860953  0.59652145    -0.01500
Br905      Br  0.72409565  0.70107406  0.46615344    -0.01400
Br906      Br  0.68643686  0.62402551  0.91540317    -0.01400
C907        C  0.70649616  0.39225855  0.89791495    -0.02500
C908        C  0.70878702  0.35526587  0.92900712     0.07200
C909        C  0.70044662  0.36013798  0.97654424    -0.02600
C910        C  0.68829002  0.40075262  0.99202428    -0.02600
C911        C  0.68227093  0.43569349  0.95889162     0.07300
C912        C  0.69517377  0.43298718  0.91379593    -0.02800
Br913      Br  0.70068231  0.48592685  0.87501707    -0.01400
Br914      Br  0.71954086  0.38823490  0.83328335    -0.01500
Br915      Br  0.68798250  0.41154244  0.05960897    -0.01400
Br916      Br  0.70491239  0.31064606  0.02044165    -0.01400
C917        C  0.29364242  0.39458192  0.89323184    -0.02500
C918        C  0.29295617  0.35637180  0.92247053     0.07200
C919        C  0.30242960  0.35906399  0.96974626    -0.02600
C920        C  0.31486049  0.39854650  0.98636548    -0.02600
C921        C  0.31965970  0.43468689  0.95468873     0.07300
C922        C  0.30547507  0.43417258  0.91008640    -0.02800
Br923      Br  0.30007355  0.48789661  0.87216305    -0.01400
Br924      Br  0.27774478  0.39331913  0.82996831    -0.01500
Br925      Br  0.31808706  0.40575713  0.55404182    -0.01400
Br926      Br  0.29901723  0.30800531  0.01156877    -0.01400
C927        C  0.33632206  0.61220844  0.54714477    -0.02500
C928        C  0.32963707  0.59624332  0.50151439     0.07200
C929        C  0.30714791  0.61632930  0.47710829    -0.02600
C930        C  0.29016390  0.64858178  0.49946889    -0.02600
C931        C  0.29441535  0.65937189  0.54809568     0.07300
C932        C  0.31803723  0.64075343  0.57158687    -0.02800
Br933      Br  0.32552108  0.64992623  0.63872831    -0.01400
Br934      Br  0.37109855  0.59765462  0.57646808    -0.01500
Br935      Br  0.26165449  0.67767797  0.46168397    -0.01400
Br936      Br  0.30028561  0.60093610  0.41167244    -0.01400
C937        C  0.41922544  0.55816394  0.82415442    -0.02500
C938        C  0.43957665  0.52362659  0.82270672     0.07200
C939        C  0.43797911  0.48765225  0.85557316    -0.02600
C940        C  0.41641977  0.48592523  0.88833528    -0.02600
C941        C  0.39716021  0.52176908  0.89153563     0.07300
C942        C  0.39861117  0.55765605  0.85921399    -0.02800
Br943      Br  0.37115895  0.60471440  0.86131975    -0.01400
Br944      Br  0.41752685  0.60437322  0.77594140    -0.01500
Br945      Br  0.41444682  0.43448178  0.43046238    -0.01400
Br946      Br  0.46570289  0.44061548  0.85860151    -0.01400
C947        C  0.44893514  0.52316667  0.57487711    -0.02500
C948        C  0.44257711  0.51155546  0.62169979     0.07200
C949        C  0.41610539  0.49668617  0.63246358    -0.02600
C950        C  0.39580798  0.49383623  0.59643190    -0.02600
C951        C  0.40191419  0.50499597  0.54845557     0.07300
C952        C  0.42880964  0.52081062  0.53860588    -0.02800
Br953      Br  0.43964841  0.54131420  0.97699219    -0.01400
Br954      Br  0.48598646  0.54145413  0.56067230    -0.01500
Br955      Br  0.35870894  0.48179287  0.61568851    -0.01400
Br956      Br  0.40738052  0.48253154  0.69760731    -0.01400
C957        C  0.57239377  0.56921694  0.84261676    -0.02500
C958        C  0.55713803  0.53017379  0.83147619     0.07200
C959        C  0.56297419  0.49066532  0.85824075    -0.02600
C960        C  0.58561310  0.48833445  0.88966342    -0.02600
C961        C  0.60170600  0.52664809  0.89933614     0.07300
C962        C  0.59412061  0.56743790  0.87678904    -0.02800
Br963      Br  0.61447802  0.62080882  0.89043263    -0.01400
Br964      Br  0.56427120  0.62595049  0.81189031    -0.01500
Br965      Br  0.59399120  0.43044837  0.91782891    -0.01400
Br966      Br  0.53945404  0.43865583  0.85553100    -0.01400
C967        C  0.57755504  0.55414500  0.61757268    -0.02500
C968        C  0.55949325  0.51833798  0.62475609     0.07200
C969        C  0.56239207  0.47984887  0.59613989    -0.02600
C970        C  0.58433718  0.47561982  0.56385659    -0.02600
C971        C  0.60183733  0.51251930  0.55404473     0.07300
C972        C  0.59699576  0.55276928  0.58049704    -0.02800
Br973      Br  0.61574347  0.60817924  0.56885848    -0.01400
Br974      Br  0.57725645  0.60457458  0.66086229    -0.01500
Br975      Br  0.58854924  0.41777543  0.53429981    -0.01400
Br976      Br  0.53505197  0.43315188  0.59820145    -0.01400
C977        C  0.71811582  0.11491482  0.94918344    -0.02500
C978        C  0.70719800  0.15831161  0.94493498     0.07200
C979        C  0.67933504  0.16629061  0.95508477    -0.02600
C980        C  0.66259658  0.13103707  0.97111230    -0.02600
C981        C  0.67356041  0.08661634  0.97555508     0.07300
C982        C  0.70058841  0.07900142  0.95741472    -0.02800
Br983      Br  0.71169859  0.02304603  0.92776594    -0.01400
Br984      Br  0.75692465  0.10378334  0.94036878    -0.01500
Br985      Br  0.62395332  0.14417664  0.97811772    -0.01400
Br986      Br  0.66423304  0.22600372  0.94638951    -0.01400
C987        C  0.70041016  0.89631814  0.60191833    -0.02500
C988        C  0.70159125  0.85555124  0.57729816     0.07200
C989        C  0.68605628  0.85004049  0.53552364    -0.02600
C990        C  0.67050161  0.88599637  0.51666361    -0.02600
C991        C  0.67102642  0.92826431  0.53884578     0.07300
C992        C  0.68555074  0.93280394  0.58250146    -0.02800
Br993      Br  0.68534919  0.98834305  0.61703062    -0.01400
Br994      Br  0.71971626  0.90245321  0.66186940    -0.01500
Br995      Br  0.64931032  0.87651177  0.45983682    -0.01400
Br996      Br  0.68532976  0.79250059  0.50506236    -0.01400
C997        C  0.33101916  0.87595048  0.52573453    -0.02500
C998        C  0.31959211  0.92047889  0.52137098     0.07200
C999        C  0.29233448  0.92710413  0.53970856    -0.02600
C1000       C  0.27668616  0.89042485  0.55535048    -0.02600
C1001       C  0.28843257  0.84748638  0.55847510     0.07300
C1002       C  0.31538181  0.84016605  0.54339949    -0.02800
Br1003     Br  0.33076870  0.78007388  0.54749673    -0.01400
Br1004     Br  0.36937197  0.86237146  0.01491292    -0.01500
Br1005     Br  0.23912708  0.89892537  0.57635922    -0.01400
Br1006     Br  0.27657775  0.98458656  0.55569764    -0.01400
C1007       C  0.29683920  0.14123911  0.98356489    -0.02500
C1008       C  0.30454234  0.16213311  0.94029957     0.07200
C1009       C  0.33100150  0.15157902  0.92216857    -0.02600
C1010       C  0.34663760  0.11522585  0.94114396    -0.02600
C1011       C  0.33557550  0.08815439  0.97770970     0.07300
C1012       C  0.31303423  0.10594814  0.00276499    -0.02800
Br1013     Br  0.30735173  0.08660588  0.56736136    -0.01400
Br1014     Br  0.26439719  0.15915061  0.01823886    -0.01500
Br1015     Br  0.38413054  0.10874922  0.92025859    -0.01400
Br1016     Br  0.34734625  0.18826754  0.87323626    -0.01400
C1017       C  0.44718562  0.02082935  0.60511864    -0.02500
C1018       C  0.44097283  0.00271569  0.64978759     0.07200
C1019       C  0.41388126  0.99142980  0.66021209    -0.02600
C1020       C  0.39293915  0.00059232  0.62703970    -0.02600
C1021       C  0.39944750  0.00968126  0.57885833     0.07300
C1022       C  0.42716342  0.02140836  0.56847857    -0.02800
Br1023     Br  0.44016472  0.03683364  0.50603666    -0.01400
Br1024     Br  0.48373619  0.04295694  0.59389925    -0.01500
Br1025     Br  0.35571512  0.00578772  0.65029003    -0.01400
Br1026     Br  0.40532821  0.96139037  0.71889078    -0.01400
C1027       C  0.42172799  0.95648545  0.92442105    -0.02500
C1028       C  0.39703419  0.98109523  0.91774683     0.07200
C1029       C  0.39252188  0.00444682  0.87488468    -0.02600
C1030       C  0.41430403  0.01034618  0.84304661    -0.02600
C1031       C  0.43907100  0.98563807  0.84934099     0.07300
C1032       C  0.44220732  0.95727991  0.88938238    -0.02800
Br1033     Br  0.47522874  0.92140085  0.89798532    -0.01400
Br1034     Br  0.42775768  0.92170495  0.48148429    -0.01500
Br1035     Br  0.41003757  0.05355802  0.79229963    -0.01400
Br1036     Br  0.35577634  0.02384787  0.85745365    -0.03800
C1037       C  0.55351875  0.00690244  0.89460126    -0.02500
C1038       C  0.55699390  0.98158060  0.85309661     0.07200
C1039       C  0.58231912  0.95964024  0.84470383    -0.02600
C1040       C  0.60404174  0.96304025  0.87801929    -0.02600
C1041       C  0.60034375  0.98735720  0.92051639     0.07300
C1042       C  0.57553900  0.01215882  0.92643741    -0.02800
Br1043     Br  0.57179635  0.05806296  0.97404223    -0.01400
Br1044     Br  0.51822098  0.03444684  0.90828352    -0.01500
Br1045     Br  0.64005520  0.94113200  0.86119055    -0.01400
Br1046     Br  0.58816098  0.92841839  0.78561598    -0.01400
C1047       C  0.58160704  0.02220939  0.65972743    -0.02500
C1048       C  0.55799271  0.99661089  0.65212915     0.07200
C1049       C  0.55453121  0.97418773  0.60882993    -0.02600
C1050       C  0.57378440  0.97910501  0.57200585    -0.02600
C1051       C  0.59743886  0.00703608  0.57795553     0.07300
C1052       C  0.60106824  0.02780552  0.62328826    -0.02800
Br1053     Br  0.63296824  0.06252555  0.63958199    -0.01400
Br1054     Br  0.58830166  0.04683211  0.72231689    -0.01500
Br1055     Br  0.56460354  0.94741333  0.51430897    -0.01400
Br1056     Br  0.52236411  0.93728604  0.59931642    -0.01400
loop_ 
_geom_bond_atom_site_label_1 
_geom_bond_atom_site_label_2 
_geom_bond_distance 
_geom_bond_site_symmetry_2 
_ccdc_geom_bond_type 
O1            V9   1.889       .  S
O1           C11   1.263   1_545  A
O2            V9   1.892       .  S
O2           C12   1.261   1_545  A
O3            V9   1.905       .  S
O3           C13   1.265   1_545  A
O4            V9   1.900       .  S
O4           C14   1.264   1_545  A
O5           V10   1.901       .  S
O5           C14   1.265       .  A
O6           V10   1.902       .  S
O6           C13   1.265       .  A
O7           V10   1.901       .  S
O7           C12   1.264       .  A
O8           V10   1.903       .  S
O8           C11   1.264       .  A
V9           V10   2.088   1_545  T
C11         C510   1.474       .  S
C12         C490   1.468   1_565  S
C13         C503   1.484       .  S
C14         C520   1.485       .  S
C15          C21   1.529       .  S
C15         C544   1.552   1_564  S
C15         C547   1.542   1_554  S
C15         C470   1.569       .  S
C16         C543   1.552   1_545  S
C16          H23   1.078       .  S
C16          C17   1.375       .  D
C17          C18   1.537       .  S
C17         C483   1.518       .  S
C18          C20   1.553   1_545  S
C18         C550   1.539       .  S
C18          H24   1.086       .  S
C19         C543   1.542       .  S
C19          H25   1.086       .  S
C19          C20   1.369       .  D
C20         C500   1.486       .  S
C21          H26   1.085       .  S
C21          C22   1.365   1_565  D
C22         C546   1.539   1_554  S
C22         C493   1.512       .  S
C27          C28   1.518       .  S
C27         C561   1.531       .  S
C27         C559   1.565       .  S
C27         C453   1.549       .  S
C28          H35   1.088       .  S
C28          C29   1.352   1_545  D
C29         C558   1.564       .  S
C29         C513   1.494       .  S
C30          C34   1.539       .  S
C30          C32   1.542   1_565  S
C30         C557   1.564   1_554  S
C30          H36   1.099       .  S
C31         C555   1.565   1_554  S
C31          H37   1.078       .  S
C31          C32   1.393       .  D
C32         C523   1.532       .  S
C33         C555   1.531   1_554  S
C33          H38   1.086       .  S
C33          C34   1.354   1_545  D
C34         C463   1.492       .  S
O39          V47   1.895       .  S
O39          C49   1.263       .  A
O40          V47   1.894       .  S
O40          C50   1.263       .  A
O41          V47   1.898       .  S
O41          C51   1.262       .  A
O42          V47   1.891       .  S
O42          C52   1.263       .  A
O43          V48   1.921       .  S
O43          C52   1.267       .  A
O44          V48   1.909       .  S
O44          C51   1.267       .  A
O45          V48   1.910       .  S
O45          C50   1.266       .  A
O46          V48   1.912       .  S
O46          C49   1.268       .  A
V47          V48   2.079       .  T
C49         C440   1.500       .  S
C50         C410   1.497       .  S
C51         C420   1.479       .  S
C52         C430   1.515       .  S
C53          C54   1.528       .  S
C53         C587   1.526       .  S
C53         C585   1.559       .  S
C53         C393   1.550       .  S
C54          H61   1.088       .  S
C54          C55   1.353       .  D
C55         C584   1.556       .  S
C55         C413   1.493       .  S
C56          C60   1.556       .  S
C56          C58   1.550   1_556  S
C56         C583   1.556       .  S
C56          H62   1.107       .  S
C57         C581   1.559   1_554  S
C57          H63   1.083       .  S
C57          C58   1.381       .  D
C58         C423   1.519       .  S
C59         C581   1.526       .  S
C59          H64   1.087       .  S
C59          C60   1.364       .  D
C60         C400   1.505   1_556  S
C65          C71   1.534       .  S
C65         C594   1.511       .  S
C65         C597   1.563       .  S
C65         C383   1.549       .  S
C66         C593   1.511       .  S
C66          H73   1.088       .  S
C66          C67   1.356       .  D
C67          C68   1.575       .  S
C67         C370   1.495   1_556  S
C68          C70   1.545   1_556  S
C68         C600   1.555       .  S
C68          H74   1.102       .  S
C69         C593   1.563   1_554  S
C69          H75   1.081       .  S
C69          C70   1.384       .  D
C70         C443   1.533       .  S
C71          H76   1.087       .  S
C71          C72   1.358       .  D
C72         C596   1.555       .  S
C72         C433   1.516       .  S
O77          V85   1.891   1_455  S
O77          C87   1.263       .  A
O78         V613   1.901   1_554  S
O78          C88   1.264       .  A
O79          V85   1.906       .  S
O79          C89   1.265       .  A
O80         V613   1.902   1_454  S
O80          C90   1.263       .  A
O81         V614   1.898   1_455  S
O81          C90   1.264       .  A
O82          V86   1.903       .  S
O82          C89   1.264       .  A
O83         V614   1.902       .  S
O83          C88   1.266       .  A
O84          V86   1.906   1_455  S
O84          C87   1.265       .  A
V85         O606   1.901       .  S
V85         O608   1.902   1_655  S
V85          V86   2.081       .  T
V86         O609   1.898   1_655  S
V86         O611   1.902       .  S
C87         C340   1.498       .  S
C88         C360   1.490       .  S
C89         C353   1.477       .  S
C90         C330   1.474       .  S
C91          C92   1.526       .  S
C91          C97   1.525       .  S
C91          C95   1.561       .  S
C91         C320   1.551       .  S
C92          H99   1.088       .  S
C92          C93   1.352       .  D
C93          C94   1.556       .  S
C93         C343   1.493       .  S
C94          C98   1.556       .  S
C94          C96   1.550       .  S
C94         H100   1.107       .  S
C95         H101   1.082       .  S
C95          C96   1.386       .  D
C96         C333   1.523       .  S
C97         H102   1.086       .  S
C97          C98   1.363       .  D
C98         C313   1.503       .  S
C103        C104   1.519       .  S
C103        C109   1.539       .  S
C103        C107   1.554       .  S
C103        C290   1.546       .  S
C104        H111   1.087       .  S
C104        C105   1.356       .  D
C105        C106   1.549       .  S
C105        C303   1.485       .  S
C106        C110   1.550       .  S
C106        C108   1.543       .  S
C106        H112   1.108       .  S
C107        H113   1.079       .  S
C107        C108   1.375       .  D
C108        C363   1.506       .  S
C109        H114   1.086       .  S
C109        C110   1.368       .  D
C110        C350   1.506       .  S
O115        V123   1.903   1_655  S
O115        C125   1.265   1_545  A
O116        V651   1.898       .  S
O116        C126   1.263   1_545  A
O117        V123   1.897       .  S
O117        C127   1.265   1_545  A
O118        V651   1.901   1_655  S
O118        C128   1.264   1_545  A
O119        V652   1.906   1_655  S
O119        C128   1.267       .  A
O120        V124   1.910       .  S
O120        C127   1.266       .  A
O121        V652   1.894       .  S
O121        C126   1.263       .  A
O122        V124   1.899   1_655  S
O122        C125   1.263       .  A
V123        O644   1.898       .  S
V123        O646   1.901   1_455  S
V123        V124   2.084   1_545  T
V124        O647   1.906   1_455  S
V124        O649   1.894       .  S
C125        C273   1.473       .  S
C126        C250   1.467       .  S
C127        C263   1.501       .  S
C128        C280   1.492       .  S
C129        C130   1.529   1_545  S
C129        C135   1.530       .  S
C129        C133   1.557       .  S
C129        C240   1.550       .  S
C130        H137   1.087       .  S
C130        C131   1.369       .  D
C131        C132   1.549       .  S
C131        C230   1.509       .  S
C132        C136   1.551       .  S
C132        C134   1.544   1_565  S
C132        H138   1.106       .  S
C133        H139   1.081       .  S
C133        C134   1.379       .  D
C134        C253   1.507       .  S
C135        H140   1.087       .  S
C135        C136   1.355   1_545  D
C136        C260   1.492       .  S
C141        C142   1.523       .  S
C141        C147   1.526   1_545  S
C141        C145   1.558       .  S
C141        C223   1.555       .  S
C142        H149   1.087       .  S
C142        C143   1.365   1_545  D
C143        C144   1.550       .  S
C143        C270   1.509       .  S
C144        C148   1.548       .  S
C144        C146   1.553       .  S
C144        H150   1.105       .  S
C145        H151   1.085       .  S
C145        C146   1.389   1_545  D
C146        C283   1.518       .  S
C147        H152   1.085       .  S
C147        C148   1.349       .  D
C148        C213   1.487       .  S
O153        V161   1.902       .  S
O153        C163   1.265       .  A
O154        V161   1.905       .  S
O154        C164   1.266       .  A
O155        V161   1.902       .  S
O155        C165   1.263       .  A
O156        V161   1.894       .  S
O156        C166   1.263       .  A
O157        V162   1.896       .  S
O157        C166   1.263       .  A
O158        V162   1.898       .  S
O158        C165   1.264       .  A
O159        V162   1.898       .  S
O159        C164   1.264       .  A
O160        V162   1.900       .  S
O160        C163   1.264       .  A
V161        V162   2.088       .  T
C163        C220   1.479       .  S
C164        C380   1.482       .  S
C165        C450   1.474       .  S
C166        C293   1.474       .  S
O167        V175   1.891       .  S
O167        C177   1.261       .  A
O168        V175   1.896       .  S
O168        C178   1.263       .  A
O169        V175   1.907       .  S
O169        C179   1.265       .  A
O170        V175   1.906       .  S
O170        C180   1.267       .  A
O171        V176   1.904       .  S
O171        C180   1.264       .  A
O172        V176   1.898       .  S
O172        C179   1.265       .  A
O173        V176   1.898       .  S
O173        C178   1.262       .  A
O174        V176   1.899       .  S
O174        C177   1.264       .  A
V175        V176   2.086       .  T
C177        C460   1.467       .  S
C178        C300   1.466       .  S
C179        C210   1.490       .  S
C180        C373   1.503       .  S
O181        V189   1.901       .  S
O181        C191   1.265       .  A
O182        V189   1.903       .  S
O182        C192   1.264       .  A
O183        V189   1.905       .  S
O183        C193   1.265       .  A
O184        V189   1.903       .  S
O184        C194   1.266       .  A
O185        V190   1.903       .  S
O185        C194   1.264       .  A
O186        V190   1.903       .  S
O186        C193   1.266       .  A
O187        V190   1.900       .  S
O187        C192   1.264       .  A
O188        V190   1.897       .  S
O188        C191   1.263       .  A
V189        V190   2.082       .  T
C191        C390   1.476       .  S
C192        C243   1.481       .  S
C193        C323   1.490       .  S
C194        C480   1.507       .  S
O195        V203   1.909       .  S
O195        C205   1.268       .  A
O196        V203   1.917       .  S
O196        C206   1.270       .  A
O197        V203   1.896       .  S
O197        C207   1.263       .  A
O198        V203   1.897       .  S
O198        C208   1.262       .  A
O199        V204   1.910       .  S
O199        C208   1.268       .  A
O200        V204   1.914       .  S
O200        C207   1.268       .  A
O201        V204   1.885       .  S
O201        C206   1.260       .  A
O202        V204   1.890       .  S
O202        C205   1.261       .  A
V203        V204   2.070       .  T
C205        C233   1.498       .  S
C206        C403   1.507       .  S
C207        C310   1.502       .  S
C208        C473   1.478       .  S
C209        C210   1.418       .  A
C209        C214   1.412       .  A
C209       Br216   1.929       .  S
C210        C211   1.415       .  A
C211        C212   1.405       .  A
C211       Br218   1.937       .  S
C212        C213   1.415       .  A
C212       Br217   1.940       .  S
C213        C214   1.406       .  A
C214       Br215   1.929       .  S
C219        C220   1.409       .  A
C219        C224   1.417       .  A
C219       Br226   1.933       .  S
C220        C221   1.400       .  A
C221        C222   1.399       .  A
C221       Br228   1.935       .  S
C222        C223   1.431       .  A
C222       Br227   1.943       .  S
C223        C224   1.424       .  A
C224       Br225   1.922       .  S
C229        C230   1.420       .  A
C229        C234   1.415       .  A
C229       Br236   1.921       .  S
C230        C231   1.410       .  A
C231        C232   1.405       .  A
C231       Br238   1.929       .  S
C232        C233   1.420       .  A
C232       Br237   1.937       .  S
C233        C234   1.418       .  A
C234       Br235   1.939       .  S
C239        C240   1.429       .  A
C239        C244   1.408       .  A
C239       Br246   1.935       .  S
C240        C241   1.419       .  A
C241        C242   1.409       .  A
C241       Br248   1.925       .  S
C242        C243   1.406       .  A
C242       Br247   1.923       .  S
C243        C244   1.405       .  A
C244       Br245   1.936       .  S
C249        C250   1.400       .  A
C249        C254   1.404       .  A
C249       Br256   1.938       .  S
C250        C251   1.403   1_565  A
C251        C252   1.411       .  A
C251       Br258   1.933       .  S
C252        C253   1.424       .  A
C252       Br257   1.929       .  S
C253        C254   1.424   1_545  A
C254       Br255   1.919       .  S
C259        C260   1.416   1_545  A
C259        C264   1.407       .  A
C259       Br266   1.939       .  S
C260        C261   1.405       .  A
C261        C262   1.415       .  A
C261       Br268   1.930       .  S
C262        C263   1.424       .  A
C262       Br267   1.931       .  S
C263        C264   1.419   1_565  A
C264       Br265   1.939       .  S
C269        C270   1.420       .  A
C269        C274   1.408       .  A
C269       Br276   1.935       .  S
C270        C271   1.424       .  A
C271        C272   1.411       .  A
C271       Br278   1.921       .  S
C272        C273   1.403       .  A
C272       Br277   1.936       .  S
C273        C274   1.405       .  A
C274       Br275   1.927       .  S
C279        C280   1.410       .  A
C279        C284   1.413       .  A
C279       Br286   1.941       .  S
C280        C281   1.412   1_565  A
C281        C282   1.413       .  A
C281       Br288   1.936       .  S
C282        C283   1.419   1_545  A
C282       Br287   1.926       .  S
C283        C284   1.426       .  A
C284       Br285   1.922       .  S
C289        C290   1.423       .  A
C289        C294   1.400       .  A
C289       Br296   1.930       .  S
C290        C291   1.422       .  A
C291        C292   1.413       .  A
C291       Br298   1.931       .  S
C292        C293   1.410       .  A
C292       Br297   1.932       .  S
C293        C294   1.405       .  A
C294       Br295   1.940       .  S
C299        C300   1.406       .  A
C299        C304   1.406       .  A
C299       Br306   1.921       .  S
C300        C301   1.403       .  A
C301        C302   1.402       .  A
C301       Br308   1.931       .  S
C302        C303   1.422       .  A
C302       Br307   1.939       .  S
C303        C304   1.410       .  A
C304       Br305   1.929       .  S
C309        C310   1.419       .  A
C309        C314   1.410       .  A
C309       Br316   1.939       .  S
C310        C311   1.419       .  A
C311        C312   1.415       .  A
C311       Br318   1.933       .  S
C312        C313   1.413       .  A
C312       Br317   1.929       .  S
C313        C314   1.410       .  A
C314       Br315   1.918       .  S
C319        C320   1.425       .  A
C319        C324   1.405       .  A
C319       Br326   1.941       .  S
C320        C321   1.417       .  A
C321        C322   1.416       .  A
C321       Br328   1.923       .  S
C322        C323   1.414       .  A
C322       Br327   1.926       .  S
C323        C324   1.412       .  A
C324       Br325   1.938       .  S
C329        C330   1.398       .  A
C329        C334   1.409       .  A
C329       Br336   1.941       .  S
C330        C331   1.402       .  A
C331        C332   1.414       .  A
C331       Br338   1.934       .  S
C332        C333   1.427       .  A
C332       Br337   1.927       .  S
C333        C334   1.432       .  A
C334       Br335   1.919       .  S
C339        C340   1.424       .  A
C339        C344   1.414       .  A
C339       Br346   1.933       .  S
C340        C341   1.421       .  A
C341        C342   1.405       .  A
C341       Br348   1.942       .  S
C342        C343   1.418       .  A
C342       Br347   1.941       .  S
C343        C344   1.404       .  A
C344       Br345   1.928       .  S
C349        C350   1.414       .  A
C349        C354   1.404       .  A
C349       Br356   1.920       .  S
C350        C351   1.419       .  A
C351        C352   1.414       .  A
C351       Br358   1.918       .  S
C352        C353   1.407       .  A
C352       Br357   1.931       .  S
C353        C354   1.403       .  A
C354       Br355   1.925       .  S
C359        C360   1.411       .  A
C359        C364   1.407       .  A
C359       Br366   1.941       .  S
C360        C361   1.416       .  A
C361        C362   1.414       .  A
C361       Br368   1.934       .  S
C362        C363   1.418       .  A
C362       Br367   1.936       .  S
C363        C364   1.418       .  A
C364       Br365   1.919       .  S
C369        C370   1.415       .  A
C369        C374   1.409       .  A
C369       Br376   1.937       .  S
C370        C371   1.408   1_554  A
C371        C372   1.416   1_556  A
C371       Br906   1.930       .  S
C372        C373   1.425       .  A
C372       Br377   1.933   1_554  S
C373        C374   1.419       .  A
C374       Br375   1.939       .  S
Br378       C899   1.930       .  S
C379        C380   1.409       .  A
C379        C384   1.405       .  A
C379       Br386   1.937       .  S
C380        C381   1.410       .  A
C381        C382   1.414       .  A
C381       Br388   1.931       .  S
C382        C383   1.422       .  A
C382       Br387   1.931       .  S
C383        C384   1.424       .  A
C384       Br385   1.941       .  S
C389        C390   1.405       .  A
C389        C394   1.405       .  A
C389       Br396   1.936       .  S
C390        C391   1.407       .  A
C391        C392   1.412       .  A
C391       Br398   1.932       .  S
C392        C393   1.420       .  A
C392       Br925   1.923       .  S
C393        C394   1.427       .  A
C394       Br395   1.937       .  S
Br397       C920   1.923   1_554  S
C399        C400   1.409       .  A
C399        C404   1.410       .  A
C399       Br406   1.920       .  S
C400        C401   1.412   1_554  A
C401        C402   1.414       .  A
C401       Br408   1.928       .  S
C402        C403   1.421   1_556  A
C402       Br407   1.935       .  S
C403        C404   1.426       .  A
C404       Br405   1.943       .  S
C409        C410   1.421       .  A
C409        C414   1.415       .  A
C409       Br416   1.932       .  S
C410        C411   1.418       .  A
C411        C412   1.406       .  A
C411       Br418   1.935       .  S
C412        C413   1.417       .  A
C412       Br945   1.941       .  S
C413        C414   1.406       .  A
C414       Br415   1.927       .  S
Br417       C940   1.941       .  S
C419        C420   1.400       .  A
C419        C424   1.411       .  A
C419       Br426   1.937       .  S
C420        C421   1.405       .  A
C421        C422   1.413       .  A
C421       Br428   1.933       .  S
C422        C423   1.425       .  A
C422       Br427   1.930       .  S
C423        C424   1.428       .  A
C424       Br953   1.918   1_554  S
Br425       C952   1.918       .  S
C429        C430   1.426       .  A
C429        C434   1.423       .  A
C429       Br436   1.933       .  S
C430        C431   1.421       .  A
C431        C432   1.408       .  A
C431       Br438   1.944       .  S
C432        C433   1.422       .  A
C432       Br437   1.935       .  S
C433        C434   1.414       .  A
C434       Br435   1.927       .  S
C439        C440   1.409       .  A
C439        C444   1.416       .  A
C439       Br446   1.941       .  S
C440        C441   1.412       .  A
C441        C442   1.414       .  A
C441       Br448   1.943       .  S
C442        C443   1.430       .  A
C442       Br447   1.929       .  S
C443        C444   1.434       .  A
C444       Br445   1.929       .  S
C449        C450   1.398       .  A
C449        C454   1.400       .  A
C449       Br456   1.933       .  S
C450        C451   1.407       .  A
C451        C452   1.415       .  A
C451       Br458   1.933       .  S
C452        C453   1.427       .  A
C452       Br457   1.929       .  S
C453        C454   1.432       .  A
C454       Br455   1.943       .  S
C459        C460   1.404       .  A
C459        C464   1.405       .  A
C459       Br466   1.935       .  S
C460        C461   1.404       .  A
C461        C462   1.405       .  A
C461       Br468   1.924       .  S
C462        C463   1.411       .  A
C462       Br467   1.920   1_554  S
C463        C464   1.420       .  A
C464       Br465   1.925       .  S
C469        C470   1.438       .  A
C469        C474   1.412       .  A
C469      Br1004   1.933       .  S
C470        C471   1.440       .  A
C471        C472   1.414       .  A
C471       Br478   1.927       .  S
C472        C473   1.399       .  A
C472       Br477   1.941       .  S
C473        C474   1.398       .  A
C474       Br475   1.937       .  S
Br476       C997   1.933       .  S
C479        C480   1.422       .  A
C479        C484   1.410       .  A
C479       Br486   1.935       .  S
C480        C481   1.422       .  A
C481        C482   1.417       .  A
C481       Br488   1.940       .  S
C482        C483   1.421       .  A
C482       Br487   1.931       .  S
C483        C484   1.409       .  A
C484      Br1013   1.929       .  S
Br485      C1012   1.929       .  S
C489        C490   1.404       .  A
C489        C494   1.412       .  A
C489       Br496   1.936       .  S
C490        C491   1.400   1_545  A
C491        C492   1.400   1_565  A
C491       Br498   1.928       .  S
C492        C493   1.422       .  A
C492       Br497   1.938       .  S
C493        C494   1.432       .  A
C494       Br495   1.930       .  S
C499        C500   1.411       .  A
C499        C504   1.410       .  A
C499      Br1034   1.927       .  S
C500        C501   1.405   1_565  A
C501        C502   1.408       .  A
C501       Br508   1.931       .  S
C502        C503   1.414   1_545  A
C502       Br507   1.929       .  S
C503        C504   1.413       .  A
C504       Br505   1.932       .  S
Br506      C1027   1.927       .  S
C509        C510   1.405   1_545  A
C509        C514   1.402       .  A
C509       Br516   1.938       .  S
C510        C511   1.411       .  A
C511        C512   1.412       .  A
C511       Br518   1.932       .  S
C512        C513   1.414       .  A
C512       Br517   1.927       .  S
C513        C514   1.419   1_565  A
C514       Br515   1.929       .  S
C519        C520   1.405   1_545  A
C519        C524   1.414       .  A
C519       Br526   1.938       .  S
C520        C521   1.403       .  A
C521        C522   1.413       .  A
C521       Br528   1.945       .  S
C522        C523   1.441   1_565  A
C522       Br527   1.935       .  S
C523        C524   1.432       .  A
C524       Br525   1.932       .  S
O529        V537   1.889       .  S
O529        C539   1.263   1_545  A
O530        V537   1.892       .  S
O530        C540   1.261   1_545  A
O531        V537   1.905       .  S
O531        C541   1.265   1_545  A
O532        V537   1.900       .  S
O532        C542   1.264   1_545  A
O533        V538   1.901       .  S
O533        C542   1.265       .  A
O534        V538   1.902       .  S
O534        C541   1.265       .  A
O535        V538   1.901       .  S
O535        C540   1.264       .  A
O536        V538   1.903       .  S
O536        C539   1.264       .  A
V537        V538   2.088   1_545  T
C539       C1038   1.474       .  S
C540       C1018   1.468   1_565  S
C541       C1031   1.484       .  S
C542       C1048   1.485       .  S
C543        C549   1.529       .  S
C543        C998   1.569       .  S
C544        H551   1.078       .  S
C544        C545   1.375       .  D
C545        C546   1.537       .  S
C545       C1011   1.518       .  S
C546        C548   1.553   1_545  S
C546        H552   1.086       .  S
C547        H553   1.086       .  S
C547        C548   1.369       .  D
C548       C1028   1.486       .  S
C549        H554   1.085       .  S
C549        C550   1.365   1_565  D
C550       C1021   1.512       .  S
C555        C556   1.518       .  S
C555        C981   1.549       .  S
C556        H563   1.088       .  S
C556        C557   1.352   1_545  D
C557       C1041   1.494       .  S
C558        C562   1.539       .  S
C558        C560   1.542   1_565  S
C558        H564   1.099       .  S
C559        H565   1.078       .  S
C559        C560   1.393       .  D
C560       C1051   1.532       .  S
C561        H566   1.086       .  S
C561        C562   1.354   1_545  D
C562        C991   1.492       .  S
O567        V575   1.895       .  S
O567        C577   1.263       .  A
O568        V575   1.894       .  S
O568        C578   1.263       .  A
O569        V575   1.898       .  S
O569        C579   1.262       .  A
O570        V575   1.891       .  S
O570        C580   1.263       .  A
O571        V576   1.921       .  S
O571        C580   1.267       .  A
O572        V576   1.909       .  S
O572        C579   1.267       .  A
O573        V576   1.910       .  S
O573        C578   1.266       .  A
O574        V576   1.912       .  S
O574        C577   1.268       .  A
V575        V576   2.079       .  T
C577        C968   1.500       .  S
C578        C938   1.497       .  S
C579        C948   1.479       .  S
C580        C958   1.515       .  S
C581        C582   1.528       .  S
C581        C921   1.550       .  S
C582        H589   1.088       .  S
C582        C583   1.353       .  D
C583        C941   1.493       .  S
C584        C588   1.556       .  S
C584        C586   1.550       .  S
C584        H590   1.107       .  S
C585        H591   1.083       .  S
C585        C586   1.381       .  D
C586        C951   1.519       .  S
C587        H592   1.087       .  S
C587        C588   1.364       .  D
C588        C928   1.505       .  S
C593        C599   1.534       .  S
C593        C911   1.549       .  S
C594        H601   1.088       .  S
C594        C595   1.356       .  D
C595        C596   1.575       .  S
C595        C898   1.495       .  S
C596        C598   1.545       .  S
C596        H602   1.102       .  S
C597        H603   1.081       .  S
C597        C598   1.384       .  D
C598        C971   1.533       .  S
C599        H604   1.087       .  S
C599        C600   1.358       .  D
C600        C961   1.516       .  S
O605        V613   1.891   1_455  S
O605        C615   1.263       .  A
O606        C616   1.264       .  A
O607        V613   1.906       .  S
O607        C617   1.265       .  A
O608        C618   1.263       .  A
O609        C618   1.264       .  A
O610        V614   1.903   1_556  S
O610        C617   1.264       .  A
O611        C616   1.266       .  A
O612        V614   1.906   1_456  S
O612        C615   1.265       .  A
V613        V614   2.081   1_556  T
C615        C868   1.498       .  S
C616        C888   1.490       .  S
C617        C881   1.477       .  S
C618        C858   1.474       .  S
C619        C620   1.526       .  S
C619        C625   1.525       .  S
C619        C623   1.561       .  S
C619        C848   1.551       .  S
C620        H627   1.088       .  S
C620        C621   1.352       .  D
C621        C622   1.556       .  S
C621        C871   1.493       .  S
C622        C626   1.556       .  S
C622        C624   1.550       .  S
C622        H628   1.107       .  S
C623        H629   1.082       .  S
C623        C624   1.386       .  D
C624        C861   1.523       .  S
C625        H630   1.086       .  S
C625        C626   1.363       .  D
C626        C841   1.503       .  S
C631        C632   1.519       .  S
C631        C637   1.539       .  S
C631        C635   1.554       .  S
C631        C818   1.546       .  S
C632        H639   1.087       .  S
C632        C633   1.356       .  D
C633        C634   1.549       .  S
C633        C831   1.485       .  S
C634        C638   1.550       .  S
C634        C636   1.543       .  S
C634        H640   1.108       .  S
C635        H641   1.079       .  S
C635        C636   1.375       .  D
C636        C891   1.506       .  S
C637        H642   1.086       .  S
C637        C638   1.368       .  D
C638        C878   1.506       .  S
O643        V651   1.903   1_656  S
O643        C653   1.265   1_545  A
O644        C654   1.263   1_545  A
O645        V651   1.897   1_556  S
O645        C655   1.265   1_545  A
O646        C656   1.264   1_545  A
O647        C656   1.267       .  A
O648        V652   1.910   1_556  S
O648        C655   1.266       .  A
O649        C654   1.263       .  A
O650        V652   1.899   1_656  S
O650        C653   1.263       .  A
V651        V652   2.084   1_545  T
C653        C801   1.473       .  S
C654        C778   1.467       .  S
C655        C791   1.501       .  S
C656        C808   1.492       .  S
C657        C658   1.529   1_545  S
C657        C663   1.530       .  S
C657        C661   1.557       .  S
C657        C768   1.550       .  S
C658        H665   1.087       .  S
C658        C659   1.369       .  D
C659        C660   1.549       .  S
C659        C758   1.509       .  S
C660        C664   1.551       .  S
C660        C662   1.544   1_565  S
C660        H666   1.106       .  S
C661        H667   1.081       .  S
C661        C662   1.379       .  D
C662        C781   1.507       .  S
C663        H668   1.087       .  S
C663        C664   1.355   1_545  D
C664        C788   1.492       .  S
C669        C670   1.523       .  S
C669        C675   1.526   1_545  S
C669        C673   1.558       .  S
C669        C751   1.555       .  S
C670        H677   1.087       .  S
C670        C671   1.365   1_545  D
C671        C672   1.550       .  S
C671        C798   1.509       .  S
C672        C676   1.548       .  S
C672        C674   1.553       .  S
C672        H678   1.105       .  S
C673        H679   1.085       .  S
C673        C674   1.389   1_545  D
C674        C811   1.518       .  S
C675        H680   1.085       .  S
C675        C676   1.349       .  D
C676        C741   1.487       .  S
O681        V689   1.902       .  S
O681        C691   1.265       .  A
O682        V689   1.905       .  S
O682        C692   1.266       .  A
O683        V689   1.902       .  S
O683        C693   1.263       .  A
O684        V689   1.894       .  S
O684        C694   1.263       .  A
O685        V690   1.896       .  S
O685        C694   1.263       .  A
O686        V690   1.898       .  S
O686        C693   1.264       .  A
O687        V690   1.898       .  S
O687        C692   1.264       .  A
O688        V690   1.900       .  S
O688        C691   1.264       .  A
V689        V690   2.088       .  T
C691        C748   1.480       .  S
C692        C908   1.482       .  S
C693        C978   1.474       .  S
C694        C821   1.474       .  S
O695        V703   1.891       .  S
O695        C705   1.261       .  A
O696        V703   1.896       .  S
O696        C706   1.263       .  A
O697        V703   1.907       .  S
O697        C707   1.265       .  A
O698        V703   1.906       .  S
O698        C708   1.267       .  A
O699        V704   1.904       .  S
O699        C708   1.264       .  A
O700        V704   1.898       .  S
O700        C707   1.265       .  A
O701        V704   1.898       .  S
O701        C706   1.262       .  A
O702        V704   1.899       .  S
O702        C705   1.264       .  A
V703        V704   2.086       .  T
C705        C988   1.467       .  S
C706        C828   1.466       .  S
C707        C738   1.490       .  S
C708        C901   1.503       .  S
O709        V717   1.901       .  S
O709        C719   1.265       .  A
O710        V717   1.903       .  S
O710        C720   1.264       .  A
O711        V717   1.905       .  S
O711        C721   1.265       .  A
O712        V717   1.903       .  S
O712        C722   1.266       .  A
O713        V718   1.903       .  S
O713        C722   1.264       .  A
O714        V718   1.903       .  S
O714        C721   1.266       .  A
O715        V718   1.900       .  S
O715        C720   1.264       .  A
O716        V718   1.897       .  S
O716        C719   1.263       .  A
V717        V718   2.082       .  T
C719        C918   1.476       .  S
C720        C771   1.481       .  S
C721        C851   1.490       .  S
C722       C1008   1.507       .  S
O723        V731   1.909       .  S
O723        C733   1.268       .  A
O724        V731   1.917       .  S
O724        C734   1.270       .  A
O725        V731   1.896       .  S
O725        C735   1.263       .  A
O726        V731   1.897       .  S
O726        C736   1.262       .  A
O727        V732   1.910       .  S
O727        C736   1.268       .  A
O728        V732   1.914       .  S
O728        C735   1.268       .  A
O729        V732   1.885       .  S
O729        C734   1.260       .  A
O730        V732   1.890       .  S
O730        C733   1.261       .  A
V731        V732   2.070       .  T
C733        C761   1.498       .  S
C734        C931   1.507       .  S
C735        C838   1.502       .  S
C736       C1001   1.478       .  S
C737        C738   1.418       .  A
C737        C742   1.412       .  A
C737       Br744   1.929       .  S
C738        C739   1.415       .  A
C739        C740   1.405       .  A
C739       Br746   1.937       .  S
C740        C741   1.415       .  A
C740       Br745   1.940       .  S
C741        C742   1.406       .  A
C742       Br743   1.929       .  S
C747        C748   1.409       .  A
C747        C752   1.417       .  A
C747       Br754   1.933       .  S
C748        C749   1.400       .  A
C749        C750   1.399       .  A
C749       Br756   1.935       .  S
C750        C751   1.431       .  A
C750       Br755   1.943       .  S
C751        C752   1.424       .  A
C752       Br753   1.922       .  S
C757        C758   1.420       .  A
C757        C762   1.415       .  A
C757       Br764   1.921       .  S
C758        C759   1.410       .  A
C759        C760   1.405       .  A
C759       Br766   1.929       .  S
C760        C761   1.420       .  A
C760       Br765   1.937       .  S
C761        C762   1.418       .  A
C762       Br763   1.939       .  S
C767        C768   1.429       .  A
C767        C772   1.408       .  A
C767       Br774   1.935       .  S
C768        C769   1.419       .  A
C769        C770   1.409       .  A
C769       Br776   1.925       .  S
C770        C771   1.406       .  A
C770       Br775   1.923       .  S
C771        C772   1.405       .  A
C772       Br773   1.936       .  S
C777        C778   1.400       .  A
C777        C782   1.404       .  A
C777       Br784   1.938       .  S
C778        C779   1.403   1_565  A
C779        C780   1.411       .  A
C779       Br786   1.933       .  S
C780        C781   1.424       .  A
C780       Br785   1.929       .  S
C781        C782   1.424   1_545  A
C782       Br783   1.919       .  S
C787        C788   1.416   1_545  A
C787        C792   1.407       .  A
C787       Br794   1.939       .  S
C788        C789   1.405       .  A
C789        C790   1.415       .  A
C789       Br796   1.930       .  S
C790        C791   1.424       .  A
C790       Br795   1.931       .  S
C791        C792   1.419   1_565  A
C792       Br793   1.939       .  S
C797        C798   1.420       .  A
C797        C802   1.408       .  A
C797       Br804   1.935       .  S
C798        C799   1.424       .  A
C799        C800   1.411       .  A
C799       Br806   1.921       .  S
C800        C801   1.403       .  A
C800       Br805   1.936       .  S
C801        C802   1.405       .  A
C802       Br803   1.927   1_556  S
C807        C808   1.410       .  A
C807        C812   1.413       .  A
C807       Br814   1.941       .  S
C808        C809   1.412   1_565  A
C809        C810   1.413       .  A
C809       Br816   1.936       .  S
C810        C811   1.419   1_545  A
C810       Br815   1.926       .  S
C811        C812   1.426       .  A
C812       Br813   1.922       .  S
C817        C818   1.423       .  A
C817        C822   1.400       .  A
C817       Br824   1.930       .  S
C818        C819   1.422       .  A
C819        C820   1.413       .  A
C819       Br826   1.931       .  S
C820        C821   1.410       .  A
C820       Br825   1.932       .  S
C821        C822   1.405       .  A
C822       Br823   1.940       .  S
C827        C828   1.406       .  A
C827        C832   1.406       .  A
C827       Br834   1.921       .  S
C828        C829   1.403       .  A
C829        C830   1.402       .  A
C829       Br836   1.931       .  S
C830        C831   1.422       .  A
C830       Br835   1.939       .  S
C831        C832   1.410       .  A
C832       Br833   1.929       .  S
C837        C838   1.419       .  A
C837        C842   1.410       .  A
C837       Br844   1.939       .  S
C838        C839   1.419       .  A
C839        C840   1.415       .  A
C839       Br846   1.933       .  S
C840        C841   1.413       .  A
C840       Br845   1.929       .  S
C841        C842   1.410       .  A
C842       Br843   1.918       .  S
C847        C848   1.425       .  A
C847        C852   1.405       .  A
C847       Br854   1.941       .  S
C848        C849   1.417       .  A
C849        C850   1.416       .  A
C849       Br856   1.923       .  S
C850        C851   1.414       .  A
C850       Br855   1.926       .  S
C851        C852   1.412       .  A
C852       Br853   1.938       .  S
C857        C858   1.398       .  A
C857        C862   1.409       .  A
C857       Br864   1.941       .  S
C858        C859   1.402       .  A
C859        C860   1.414       .  A
C859       Br866   1.934       .  S
C860        C861   1.427       .  A
C860       Br865   1.927       .  S
C861        C862   1.432       .  A
C862       Br863   1.919       .  S
C867        C868   1.424       .  A
C867        C872   1.414       .  A
C867       Br874   1.933       .  S
C868        C869   1.421       .  A
C869        C870   1.405       .  A
C869       Br876   1.942       .  S
C870        C871   1.418       .  A
C870       Br875   1.941       .  S
C871        C872   1.404       .  A
C872       Br873   1.928       .  S
C877        C878   1.414       .  A
C877        C882   1.404       .  A
C877       Br884   1.920       .  S
C878        C879   1.419       .  A
C879        C880   1.414       .  A
C879       Br886   1.918       .  S
C880        C881   1.407       .  A
C880       Br885   1.931       .  S
C881        C882   1.403       .  A
C882       Br883   1.925       .  S
C887        C888   1.411       .  A
C887        C892   1.407       .  A
C887       Br894   1.941       .  S
C888        C889   1.416       .  A
C889        C890   1.414       .  A
C889       Br896   1.934       .  S
C890        C891   1.418       .  A
C890       Br895   1.936       .  S
C891        C892   1.418       .  A
C892       Br893   1.919       .  S
C897        C898   1.415       .  A
C897        C902   1.409       .  A
C897       Br904   1.937       .  S
C898        C899   1.408       .  A
C899        C900   1.416       .  A
C900        C901   1.425       .  A
C900       Br905   1.933       .  S
C901        C902   1.419       .  A
C902       Br903   1.939       .  S
C907        C908   1.409       .  A
C907        C912   1.405       .  A
C907       Br914   1.937       .  S
C908        C909   1.410       .  A
C909        C910   1.414       .  A
C909       Br916   1.931   1_556  S
C910        C911   1.422       .  A
C910       Br915   1.931   1_556  S
C911        C912   1.424       .  A
C912       Br913   1.941       .  S
C917        C918   1.405       .  A
C917        C922   1.405       .  A
C917       Br924   1.936       .  S
C918        C919   1.407       .  A
C919        C920   1.412       .  A
C919       Br926   1.932   1_556  S
C920        C921   1.420       .  A
C921        C922   1.428       .  A
C922       Br923   1.937       .  S
C927        C928   1.409       .  A
C927        C932   1.410       .  A
C927       Br934   1.920       .  S
C928        C929   1.412       .  A
C929        C930   1.414       .  A
C929       Br936   1.928       .  S
C930        C931   1.421       .  A
C930       Br935   1.935       .  S
C931        C932   1.426       .  A
C932       Br933   1.943       .  S
C937        C938   1.421       .  A
C937        C942   1.415       .  A
C937       Br944   1.932       .  S
C938        C939   1.418       .  A
C939        C940   1.406       .  A
C939       Br946   1.935       .  S
C940        C941   1.417       .  A
C941        C942   1.406       .  A
C942       Br943   1.927       .  S
C947        C948   1.400       .  A
C947        C952   1.411       .  A
C947       Br954   1.937       .  S
C948        C949   1.405       .  A
C949        C950   1.413       .  A
C949       Br956   1.933       .  S
C950        C951   1.425       .  A
C950       Br955   1.930       .  S
C951        C952   1.428       .  A
C957        C958   1.426       .  A
C957        C962   1.423       .  A
C957       Br964   1.933       .  S
C958        C959   1.421       .  A
C959        C960   1.408       .  A
C959       Br966   1.944       .  S
C960        C961   1.422       .  A
C960       Br965   1.935       .  S
C961        C962   1.414       .  A
C962       Br963   1.927       .  S
C967        C968   1.409       .  A
C967        C972   1.416       .  A
C967       Br974   1.941       .  S
C968        C969   1.412       .  A
C969        C970   1.414       .  A
C969       Br976   1.943       .  S
C970        C971   1.430       .  A
C970       Br975   1.929       .  S
C971        C972   1.434       .  A
C972       Br973   1.929       .  S
C977        C978   1.398       .  A
C977        C982   1.400       .  A
C977       Br984   1.933       .  S
C978        C979   1.407       .  A
C979        C980   1.415       .  A
C979       Br986   1.933       .  S
C980        C981   1.427       .  A
C980       Br985   1.929       .  S
C981        C982   1.432       .  A
C982       Br983   1.943       .  S
C987        C988   1.404       .  A
C987        C992   1.405       .  A
C987       Br994   1.935       .  S
C988        C989   1.404       .  A
C989        C990   1.405       .  A
C989       Br996   1.924       .  S
C990        C991   1.411       .  A
C990       Br995   1.920       .  S
C991        C992   1.420       .  A
C992       Br993   1.926       .  S
C997        C998   1.438       .  A
C997       C1002   1.412       .  A
C998        C999   1.440       .  A
C999       C1000   1.414       .  A
C999      Br1006   1.927       .  S
C1000      C1001   1.399       .  A
C1000     Br1005   1.941       .  S
C1001      C1002   1.398       .  A
C1002     Br1003   1.937       .  S
C1007      C1008   1.422       .  A
C1007      C1012   1.410   1_556  A
C1007     Br1014   1.935   1_556  S
C1008      C1009   1.422       .  A
C1009      C1010   1.417       .  A
C1009     Br1016   1.940       .  S
C1010      C1011   1.421       .  A
C1010     Br1015   1.931       .  S
C1011      C1012   1.409   1_556  A
C1017      C1018   1.404       .  A
C1017      C1022   1.412       .  A
C1017     Br1024   1.936       .  S
C1018      C1019   1.400   1_545  A
C1019      C1020   1.400   1_565  A
C1019     Br1026   1.928       .  S
C1020      C1021   1.422       .  A
C1020     Br1025   1.938       .  S
C1021      C1022   1.432       .  A
C1022     Br1023   1.930       .  S
C1027      C1028   1.411       .  A
C1027      C1032   1.410       .  A
C1028      C1029   1.405   1_565  A
C1029      C1030   1.408       .  A
C1029     Br1036   1.931       .  S
C1030      C1031   1.414   1_545  A
C1030     Br1035   1.929       .  S
C1031      C1032   1.413       .  A
C1032     Br1033   1.932       .  S
C1037      C1038   1.405   1_545  A
C1037      C1042   1.402       .  A
C1037     Br1044   1.938       .  S
C1038      C1039   1.411       .  A
C1039      C1040   1.412       .  A
C1039     Br1046   1.932       .  S
C1040      C1041   1.414       .  A
C1040     Br1045   1.927       .  S
C1041      C1042   1.419   1_565  A
C1042     Br1043   1.929       .  S
C1047      C1048   1.405   1_545  A
C1047      C1052   1.414       .  A
C1047     Br1054   1.938       .  S
C1048      C1049   1.403       .  A
C1049      C1050   1.413       .  A
C1049     Br1056   1.945       .  S
C1050      C1051   1.441   1_565  A
C1050     Br1055   1.935       .  S
C1051      C1052   1.432       .  A
C1052     Br1053   1.932       .  S
