geometry optimzed in LAMMPS
_audit_creation_date              2020-12-01 
_audit_creation_method            'lammps2cif' 
_symmetry_space_group_name_H-M    'P1' 
_symmetry_Int_Tables_number       1 
_symmetry_cell_setting            triclinic 
loop_ 
_symmetry_equiv_pos_as_xyz 
  x,y,z 
_cell_length_a                    45.44096997 
_cell_length_b                    43.32865717502301 
_cell_length_c                    43.94357186482621 
_cell_angle_alpha                 92.40465716296526 
_cell_angle_beta                  85.22569513168973 
_cell_angle_gamma                 86.59214352678622 
loop_ 
_atom_site_label 
_atom_site_type_symbol 
_atom_site_fract_x 
_atom_site_fract_y 
_atom_site_fract_z 
_atom_site_charge 
N1          N  0.03373386  0.09472686  0.12494006    -0.25900
N2          N  0.04349714  0.07379333  0.14337217    -0.33800
C3          C  0.02406211  0.07410014  0.16850872     0.02400
C4          C  0.00150323  0.09670527  0.16547037     0.08500
C5          C  0.00839934  0.10903714  0.13756219    -0.04600
H6          H  0.02711204  0.06048039  0.18821075     0.09100
H7          H  0.99733009  0.12883902  0.12823994     0.10300
Cu8        Cu  0.08525201  0.04983294  0.13341563     0.44200
Cu9        Cu  0.05769693  0.10877065  0.08682139     0.42000
Cu10       Cu  0.13260176  0.08135491  0.07040689     0.43900
N11         N  0.12732603  0.03059525  0.11564917    -0.33300
N12         N  0.14354260  0.04148698  0.09245749    -0.27600
C13         C  0.16869424  0.02341718  0.08644420    -0.03700
C14         C  0.16867874  0.00047153  0.10726484     0.08600
C15         C  0.14214637  0.00544091  0.12527635     0.02400
H16         H  0.18589584  0.02714073  0.06867888     0.10000
H17         H  0.13442324  0.99222329  0.14432794     0.09100
N18         N  0.11539231  0.12174679  0.05336207    -0.34800
N19         N  0.08715068  0.13099499  0.05871932    -0.26900
C20         C  0.08244951  0.15878690  0.04704957    -0.02200
C21         C  0.10899670  0.16739642  0.03363911     0.06400
C22         C  0.12957285  0.14357919  0.03810970     0.04500
H23         H  0.06160020  0.17245126  0.04962789     0.09600
H24         H  0.15316289  0.14274498  0.03192749     0.08500
N25         N  0.08970444  0.34166802  0.02296013    -0.25900
N26         N  0.06573781  0.32745342  0.03215842    -0.33800
C27         C  0.06207039  0.30442892  0.01120777     0.02400
C28         C  0.08467105  0.30487254  0.98789495     0.08500
C29         C  0.10173864  0.32853627  0.99619065    -0.04600
H30         H  0.04502136  0.28807231  0.01329539     0.09100
H31         H  0.12236597  0.33461153  0.48457279     0.10300
Cu32       Cu  0.04097787  0.34018537  0.07426752     0.44200
Cu33       Cu  0.10816571  0.37562568  0.04846599     0.42000
Cu34       Cu  0.07450725  0.39698265  0.12348005     0.43900
N35         N  0.02169427  0.35850702  0.11736061    -0.33300
N36         N  0.03387044  0.37896677  0.13486900    -0.27600
C37         C  0.01618516  0.38546944  0.16087278    -0.03700
C38         C  0.99147741  0.36838120  0.15984881     0.08600
C39         C  0.99585902  0.35146181  0.13197798     0.02400
H40         H  0.02113997  0.40170074  0.17867747     0.10000
H41         H  0.48185871  0.33437657  0.12342217     0.09100
N42         N  0.11511880  0.41200193  0.10693562    -0.34800
N43         N  0.12726073  0.40436163  0.07905801    -0.26900
C44         C  0.15402914  0.41603945  0.07549571    -0.02200
C45         C  0.15882028  0.43208077  0.10228948     0.06400
C46         C  0.13386333  0.42882469  0.12187513     0.04500
H47         H  0.16930212  0.41224937  0.05526268     0.09600
H48         H  0.13011875  0.43687698  0.14558961     0.08500
N49         N  0.41037671  0.10976048  0.11640749    -0.25900
N50         N  0.41026866  0.14028206  0.11857308    -0.33800
C51         C  0.42782429  0.14863462  0.14010829     0.02400
C52         C  0.43969353  0.12224338  0.15217188     0.08500
C53         C  0.42808873  0.09790543  0.13673444    -0.04600
H54         H  0.42968886  0.17226400  0.14835386     0.09100
H55         H  0.42965275  0.07380435  0.14228793     0.10300
Cu56       Cu  0.38319164  0.17014340  0.09614254     0.44200
Cu57       Cu  0.38028284  0.08718108  0.09201105     0.42000
Cu58       Cu  0.33082200  0.13970802  0.05141402     0.43900
N59         N  0.36220092  0.19670410  0.06542435    -0.33300
N60         N  0.34459851  0.18492408  0.04619423    -0.27600
C61         C  0.34260616  0.20413250  0.02285184    -0.03700
C62         C  0.35988007  0.22920420  0.02770053     0.08600
C63         C  0.37128822  0.22367587  0.05541501     0.02400
H64         H  0.33312248  0.19803291  0.50179522     0.10000
H65         H  0.38912809  0.23546012  0.06470158     0.09100
N66         N  0.32078052  0.09559284  0.06639061    -0.34800
N67         N  0.33905969  0.07629184  0.07945870    -0.26900
C68         C  0.32418316  0.05230138  0.08986060    -0.02200
C69         C  0.29503954  0.05666540  0.08340158     0.06400
C70         C  0.29374951  0.08433683  0.06858034     0.04500
H71         H  0.33311883  0.03512884  0.10431357     0.09600
H72         H  0.27398938  0.09666063  0.06209880     0.08500
N73         N  0.09776106  0.15602695  0.42594636    -0.25900
N74         N  0.12055872  0.14017408  0.43606276    -0.33800
C75         C  0.12853953  0.15516907  0.46122904     0.02400
C76         C  0.10995052  0.18156668  0.46716146     0.08500
C77         C  0.09041081  0.18126635  0.44467449    -0.04600
H78         H  0.14685450  0.14765713  0.47389367     0.09100
H79         H  0.07254751  0.19825269  0.44180706     0.10300
Cu80       Cu  0.14037408  0.09836204  0.41615530     0.44200
Cu81       Cu  0.07793330  0.14366024  0.38654140     0.42000
Cu82       Cu  0.09316173  0.06369368  0.36648747     0.43900
N83         N  0.15248179  0.05650684  0.39140979    -0.33300
N84         N  0.13380124  0.04378549  0.37391420    -0.27600
C85         C  0.14772936  0.02014721  0.35682803    -0.03700
C86         C  0.17673060  0.01732321  0.36395788     0.08600
C87         C  0.17908011  0.04060667  0.38627553     0.02400
H88         H  0.13807338  0.00807353  0.33846102     0.10000
H89         H  0.19889431  0.04679507  0.39647833     0.09100
N90         N  0.06717726  0.09204924  0.34221944    -0.34800
N91         N  0.06291565  0.12221566  0.34803252    -0.26900
C92         C  0.05040578  0.13489467  0.32437176    -0.02200
C93         C  0.04666978  0.11132451  0.30303800     0.06400
C94         C  0.05755861  0.08459879  0.31499347     0.04500
H95         H  0.04560823  0.15943054  0.32227867     0.09600
H96         H  0.06013395  0.06173054  0.30386217     0.08500
N97         N  0.19136691  0.47616174  0.10975452    -0.02100
C98         C  0.18658939  0.44559321  0.10942315     0.00500
C99         C  0.21281303  0.42828548  0.11091356    -0.22400
C100        C  0.23460709  0.44891547  0.11245121    -0.22600
C101        C  0.22117712  0.47835076  0.11103171     0.00400
H102        H  0.21590186  0.40329736  0.11016478     0.14200
H103        H  0.25767572  0.44257866  0.11431075     0.14200
N104        N  0.26571032  0.01049620  0.09797349    -0.02100
C105        C  0.26922414  0.04141791  0.09730787     0.00500
C106        C  0.24395029  0.05786059  0.11002703    -0.22400
C107        C  0.22413482  0.03653482  0.11873610    -0.22600
C108        C  0.23727982  0.00752745  0.10990786     0.00400
H109        H  0.24032970  0.08276818  0.11283626     0.14200
H110        H  0.20238602  0.04200751  0.13022221     0.14200
N111        N  0.32497903  0.45083519  0.09618131    -0.25900
N112        N  0.31487881  0.44517629  0.06916482    -0.33800
C113        C  0.29261131  0.46633431  0.06513541     0.02400
C114        C  0.28876695  0.48631087  0.09072630     0.08500
C115        C  0.30941385  0.47581067  0.11001046    -0.04600
H116        H  0.27968875  0.46655111  0.04554992     0.09100
H117        H  0.31227225  0.48505063  0.13275001     0.10300
Cu118      Cu  0.33079164  0.40753994  0.03970783     0.44200
Cu119      Cu  0.35861432  0.42309455  0.11398800     0.42000
Cu120      Cu  0.38514962  0.35394119  0.06813623     0.43900
N121        N  0.34847924  0.36695143  0.01568628    -0.33300
N122        N  0.36832417  0.34747311  0.02610596    -0.27600
C123        C  0.37286383  0.32223577  0.00693734    -0.03700
C124        C  0.35496800  0.32578334  0.48312385     0.08600
C125        C  0.33978581  0.35448440  0.98961882     0.02400
H126        H  0.38715362  0.30249293  0.01110944     0.10000
H127        H  0.32168059  0.36429948  0.47800290     0.09100
N128        N  0.39993283  0.36499522  0.11033426    -0.34800
N129        N  0.39126138  0.39066552  0.12685355    -0.26900
C130        C  0.40575508  0.39089053  0.15246088    -0.02200
C131        C  0.42426497  0.36414466  0.15189355     0.06400
C132        C  0.41960725  0.34810358  0.12509485     0.04500
H133        H  0.40245421  0.40872376  0.17061868     0.09600
H134        H  0.42953392  0.32563617  0.11698780     0.08500
N135        N  0.11129356  0.20440539  0.49181496    -0.02100
C136        C  0.11417404  0.19762974  0.02119293     0.00500
C137        C  0.11516691  0.22431107  0.03916842    -0.22400
C138        C  0.11318164  0.24855554  0.02003596    -0.22600
C139        C  0.11023123  0.23587979  0.49103704     0.00400
H140        H  0.11618213  0.22603110  0.06369366     0.14200
H141        H  0.11395759  0.27265963  0.02695999     0.14200
N142        N  0.09242438  0.28265956  0.46271739    -0.02100
C143        C  0.09299139  0.28901443  0.43271821     0.00500
C144        C  0.10758873  0.26515553  0.41467711    -0.22400
C145        C  0.11674864  0.24336714  0.43413597    -0.22600
C146        C  0.10647962  0.25400868  0.46347731     0.00400
H147        H  0.11195258  0.26418520  0.39005230     0.14200
H148        H  0.13010468  0.22234759  0.42735715     0.14200
N149        N  0.08555686  0.36063526  0.39533397    -0.25900
N150        N  0.06780137  0.34369067  0.38024069    -0.33800
C151        C  0.06437359  0.31719655  0.39456744     0.02400
C152        C  0.08066501  0.31729606  0.41985482     0.08500
C153        C  0.09381687  0.34526711  0.41954227    -0.04600
H154        H  0.05415972  0.29750194  0.38496476     0.09100
H155        H  0.11155135  0.35181358  0.43294950     0.10300
Cu156      Cu  0.05604607  0.35209192  0.33630598     0.44200
Cu157      Cu  0.10600005  0.39807338  0.37732599     0.42000
Cu158      Cu  0.10638025  0.39817195  0.29476639     0.43900
N159        N  0.05165939  0.36277702  0.29095605    -0.33300
N160        N  0.07080752  0.37918702  0.27543340    -0.27600
C161        C  0.05937309  0.38775688  0.24956830    -0.03700
C162        C  0.03136015  0.37667085  0.24867474     0.08600
C163        C  0.02758829  0.36048183  0.27524845     0.02400
H164        H  0.06851591  0.40509087  0.23515401     0.10000
H165        H  0.50697288  0.35218062  0.28483979     0.09100
N166        N  0.13453881  0.42304034  0.32014616    -0.34800
N167        N  0.13301885  0.42473507  0.35037223    -0.26900
C168        C  0.15387823  0.44302313  0.35953052    -0.02200
C169        C  0.16933155  0.45312998  0.33380765     0.06400
C170        C  0.15668138  0.43985521  0.30928754     0.04500
H171        H  0.15853441  0.44718592  0.38304705     0.09600
H172        H  0.16338436  0.44190801  0.28528814     0.08500
N173        N  0.47877221  0.10960494  0.18823255    -0.02100
C174        C  0.45168961  0.12163714  0.18216884     0.00500
C175        C  0.43735990  0.13734746  0.20753472    -0.22400
C176        C  0.45614329  0.13534502  0.23016275    -0.22600
C177        C  0.48137141  0.11801067  0.21813712     0.00400
H178        H  0.41617324  0.15036866  0.20890801     0.14200
H179        H  0.45237291  0.14756854  0.25218331     0.14200
N180        N  0.50825875  0.11216640  0.26576928    -0.02100
C181        C  0.03660540  0.11386320  0.27236062     0.00500
C182        C  0.05493966  0.11658344  0.24616628    -0.22400
C183        C  0.03690285  0.11745527  0.22246702    -0.22600
C184        C  0.50826071  0.11417898  0.23497021     0.00400
H185        H  0.07861666  0.11872039  0.24457909     0.14200
H186        H  0.04395299  0.12201847  0.19908049     0.14200
N187        N  0.37483606  0.19552906  0.39112136    -0.25900
N188        N  0.40264140  0.20066081  0.38316740    -0.33800
C189        C  0.41125028  0.22287504  0.40223912     0.02400
C190        C  0.38768459  0.23198258  0.42357476     0.08500
C191        C  0.36515839  0.21382041  0.41564768    -0.04600
H192        H  0.43392835  0.22898078  0.40297156     0.09100
H193        H  0.34513204  0.21006220  0.42940299     0.10300
Cu194      Cu  0.42841296  0.17056063  0.35284813     0.44200
Cu195      Cu  0.35377953  0.15828981  0.37422933     0.42000
Cu196      Cu  0.39539031  0.09976211  0.32451699     0.43900
N197        N  0.44994618  0.13704586  0.32278047    -0.33300
N198        N  0.43850087  0.11199027  0.31152500    -0.27600
C199        C  0.45840985  0.09785411  0.29003382    -0.03700
C200        C  0.48334505  0.11485965  0.28835568     0.08600
C201        C  0.47722113  0.13936565  0.30928392     0.02400
H202        H  0.45450698  0.07774913  0.27584923     0.10000
H203        H  0.49066021  0.15875113  0.31285838     0.09100
N204        N  0.35125901  0.09602466  0.34156511    -0.34800
N205        N  0.33624623  0.11796183  0.35925598    -0.26900
C206        C  0.30820842  0.11014427  0.36489386    -0.02200
C207        C  0.30514904  0.08165743  0.35047400     0.06400
C208        C  0.33296826  0.07351588  0.33564084     0.04500
H209        H  0.29097866  0.12462144  0.37791822     0.09600
H210        H  0.33922428  0.05398630  0.32002647     0.08500
N211        N  0.36602704  0.25057689  0.47549328    -0.02100
C212        C  0.38982873  0.24584384  0.45461952     0.00500
C213        C  0.41543734  0.24168088  0.46914763    -0.22400
C214        C  0.40688460  0.24142214  0.49975299    -0.22600
C215        C  0.37621571  0.24542134  0.50311969     0.00400
H216        H  0.43728769  0.23447660  0.45865389     0.14200
H217        H  0.42119318  0.23385033  0.01684218     0.14200
N218        N  0.34613742  0.30183533  0.46237645    -0.02100
C219        C  0.32818886  0.30842012  0.44002583     0.00500
C220        C  0.31030145  0.28441110  0.43538142    -0.22400
C221        C  0.31811914  0.26194359  0.45507029    -0.22600
C222        C  0.34156761  0.27216055  0.47016894     0.00400
H223        H  0.29499980  0.28231748  0.41792243     0.14200
H224        H  0.30983089  0.23909926  0.45556536     0.14200
N225        N  0.46768668  0.36526163  0.18352183    -0.02100
C226        C  0.44192709  0.35341530  0.17669037     0.00500
C227        C  0.43067276  0.33652151  0.20022223    -0.22400
C228        C  0.44977649  0.33874807  0.22278067    -0.22600
C229        C  0.47139121  0.35841517  0.21321241     0.00400
H230        H  0.40957197  0.32610682  0.20198147     0.14200
H231        H  0.44552067  0.33088512  0.24562663     0.14200
N232        N  0.47943612  0.38171352  0.23516671    -0.02100
C233        C  0.45965308  0.40538304  0.24523144     0.00500
C234        C  0.47349833  0.43267055  0.24778510    -0.22400
C235        C  0.50311338  0.42517022  0.24109290    -0.22600
C236        C  0.00650142  0.39333597  0.23529788     0.00400
H237        H  0.46381816  0.45461492  0.25771680     0.14200
H238        H  0.02040202  0.44035134  0.24590643     0.14200
N239        N  0.20002376  0.99793826  0.34700676    -0.02100
C240        C  0.19641432  0.47028607  0.33236408     0.00500
C241        C  0.22174567  0.46000156  0.31457542    -0.22400
C242        C  0.24187697  0.48187485  0.31829895    -0.22600
C243        C  0.22827129  0.00493941  0.33833139     0.00400
H244        H  0.22501369  0.43914245  0.29994956     0.14200
H245        H  0.26350794  0.48169052  0.30606220     0.14200
N246        N  0.27140287  0.03679578  0.34809226    -0.02100
C247        C  0.27655773  0.06732158  0.34743077     0.00500
C248        C  0.25040327  0.08435745  0.34400546    -0.22400
C249        C  0.22879903  0.06356387  0.34157897    -0.22600
C250        C  0.24216111  0.03447529  0.34461377     0.00400
H251        H  0.24754671  0.10917562  0.34225198     0.14200
H252        H  0.20622830  0.06907754  0.33657435     0.14200
N253        N  0.39883555  0.38958619  0.30058318    -0.25900
N254        N  0.38855242  0.41542793  0.28924928    -0.33800
C255        C  0.40724669  0.42330260  0.26596589     0.02400
C256        C  0.43060010  0.40127908  0.26190816     0.08500
C257        C  0.42471439  0.38039116  0.28456684    -0.04600
H258        H  0.40531572  0.44494485  0.25465194     0.09100
H259        H  0.43955765  0.36176209  0.29090888     0.10300
Cu260      Cu  0.35357333  0.44261582  0.30999067     0.44200
Cu261      Cu  0.37821403  0.37157331  0.34022063     0.42000
Cu262      Cu  0.31470876  0.41985063  0.37893564     0.43900
N263        N  0.32314175  0.47147067  0.33599445    -0.33300
N264        N  0.30848217  0.46380469  0.36151999    -0.27600
C265        C  0.28910275  0.48761896  0.37143070    -0.03700
C266        C  0.29248077  0.51136764  0.35136775     0.08600
C267        C  0.31370319  0.49995415  0.32888403     0.02400
H268        H  0.27255130  0.48698546  0.39053116     0.10000
H269        H  0.31957502  0.50998013  0.30728237     0.09100
N270        N  0.32847974  0.37572752  0.39206473    -0.34800
N271        N  0.35201625  0.35906172  0.37917113    -0.26900
C272        C  0.35551552  0.33299158  0.39460450    -0.02200
C273        C  0.33311642  0.33308278  0.41804736     0.06400
C274        C  0.31618648  0.36032185  0.41548339     0.04500
H275        H  0.37289727  0.31500618  0.38894255     0.09600
H276        H  0.29660657  0.36861317  0.42988046     0.08500
N277        N  0.03373553  0.09472765  0.62493612    -0.25900
N278        N  0.04349783  0.07379365  0.64336825    -0.33800
C279        C  0.02406181  0.07410044  0.66850407     0.02400
C280        C  0.00150352  0.09670628  0.66546545     0.08500
C281        C  0.00840071  0.10903814  0.63755759    -0.04600
H282        H  0.02711091  0.06048089  0.68820582     0.09100
H283        H  0.99733210  0.12884068  0.62823540     0.10300
Cu284      Cu  0.08525311  0.04983292  0.63341454     0.44200
Cu285      Cu  0.05770049  0.10877152  0.58681840     0.42000
Cu286      Cu  0.13260639  0.08135585  0.57041046     0.43900
N287        N  0.12732794  0.03059493  0.61565071    -0.33300
N288        N  0.14354559  0.04148674  0.59245982    -0.27600
C289        C  0.16869704  0.02341664  0.58644713    -0.03700
C290        C  0.16868063  0.00047083  0.60726757     0.08600
C291        C  0.14214774  0.00544054  0.62527837     0.02400
H292        H  0.18589948  0.02714038  0.56868243     0.10000
H293        H  0.13442374  0.99222307  0.64432991     0.09100
N294        N  0.11539865  0.12174775  0.55336456    -0.34800
N295        N  0.08715667  0.13099569  0.55871857    -0.26900
C296        C  0.08245650  0.15878706  0.54704729    -0.02200
C297        C  0.10900486  0.16739667  0.53363976     0.06400
C298        C  0.12958056  0.14357995  0.53811323     0.04500
H299        H  0.06160684  0.17245099  0.54962255     0.09600
H300        H  0.15317064  0.14274543  0.53193259     0.08500
N301        N  0.08970641  0.34166396  0.52296311    -0.25900
N302        N  0.06573975  0.32744909  0.53216101    -0.33800
C303        C  0.06207257  0.30442509  0.51120978     0.02400
C304        C  0.08467302  0.30486963  0.48789678     0.08500
C305        C  0.10174063  0.32853312  0.49619324    -0.04600
H306        H  0.04502305  0.28806839  0.51329659     0.09100
H307        H  0.12236417  0.33461398  0.98457016     0.10300
Cu308      Cu  0.04097873  0.34018198  0.57426957     0.44200
Cu309      Cu  0.10816736  0.37562102  0.54846974     0.42000
Cu310      Cu  0.07450421  0.39698373  0.62348091     0.43900
N311        N  0.02169298  0.35850560  0.61736147    -0.33300
N312        N  0.03386762  0.37896702  0.63486943    -0.27600
C313        C  0.01618178  0.38546947  0.66087291    -0.03700
C314        C  0.99147518  0.36837955  0.65984922     0.08600
C315        C  0.99585807  0.35145928  0.63197879     0.02400
H316        H  0.02113547  0.40170175  0.67867769     0.10000
H317        H  0.48185900  0.33437280  0.62342327     0.09100
N318        N  0.11511796  0.41199962  0.60693840    -0.34800
N319        N  0.12726169  0.40435684  0.57906202    -0.26900
C320        C  0.15403097  0.41603273  0.57550094    -0.02200
C321        C  0.15882101  0.43207532  0.60229429     0.06400
C322        C  0.13386232  0.42882211  0.62187848     0.04500
H323        H  0.16930528  0.41224028  0.55526892     0.09600
H324        H  0.13011633  0.43687601  0.64559208     0.08500
N325        N  0.41037602  0.10976558  0.61640343    -0.25900
N326        N  0.41026486  0.14028732  0.61857188    -0.33800
C327        C  0.42782163  0.14863958  0.64010618     0.02400
C328        C  0.43969470  0.12224810  0.65216634     0.08500
C329        C  0.42809121  0.09791026  0.63672750    -0.04600
H330        H  0.42968406  0.17226858  0.64835427     0.09100
H331        H  0.42965793  0.07380865  0.64227886     0.10300
Cu332      Cu  0.38318236  0.17014884  0.59614709     0.44200
Cu333      Cu  0.38028242  0.08718437  0.59200792     0.42000
Cu334      Cu  0.33081905  0.13970903  0.55141338     0.43900
N335        N  0.36218949  0.19670925  0.56542992    -0.33300
N336        N  0.34459041  0.18492723  0.54619756    -0.27600
C337        C  0.34259886  0.20413523  0.52285476    -0.03700
C338        C  0.35987014  0.22920866  0.52770513     0.08600
C339        C  0.37127515  0.22368211  0.55542157     0.02400
H340        H  0.33312598  0.19803188  0.00179370     0.10000
H341        H  0.38911351  0.23546774  0.56470955     0.09100
N342        N  0.32078020  0.09559243  0.56638681    -0.34800
N343        N  0.33906010  0.07629216  0.57945485    -0.26900
C344        C  0.32418442  0.05230086  0.58985623    -0.02200
C345        C  0.29504072  0.05666362  0.58339674     0.06400
C346        C  0.29374982  0.08433512  0.56857580     0.04500
H347        H  0.33312033  0.03512875  0.60430942     0.09600
H348        H  0.27398898  0.09665863  0.56209476     0.08500
N349        N  0.09775923  0.15602966  0.92594454    -0.25900
N350        N  0.12055609  0.14017632  0.93606198    -0.33800
C351        C  0.12853599  0.15517100  0.96122883     0.02400
C352        C  0.10994709  0.18156871  0.96716086     0.08500
C353        C  0.09040848  0.18126893  0.94467282    -0.04600
H354        H  0.14685059  0.14765878  0.97389400     0.09100
H355        H  0.07254554  0.19825544  0.94180492     0.10300
Cu356      Cu  0.14037151  0.09836389  0.91615574     0.44200
Cu357      Cu  0.07793212  0.14366308  0.88653868     0.42000
Cu358      Cu  0.09316129  0.06369650  0.86648576     0.43900
N359        N  0.15248024  0.05650889  0.89141030    -0.33300
N360        N  0.13380049  0.04378803  0.87391325    -0.27600
C361        C  0.14772904  0.02014985  0.85682742    -0.03700
C362        C  0.17672977  0.01732531  0.86395902     0.08600
C363        C  0.17907847  0.04060841  0.88627734     0.02400
H364        H  0.13807364  0.00807626  0.83845940     0.10000
H365        H  0.19889231  0.04679620  0.89648160     0.09100
N366        N  0.06717549  0.09205103  0.84221818    -0.34800
N367        N  0.06291356  0.12221745  0.84803045    -0.26900
C368        C  0.05040287  0.13489531  0.82436947    -0.02200
C369        C  0.04666663  0.11132431  0.80303658     0.06400
C370        C  0.05755635  0.08459940  0.81499269     0.04500
H371        H  0.04560517  0.15943079  0.82227551     0.09600
H372        H  0.06013242  0.06173116  0.80386204     0.08500
N373        N  0.19136711  0.47615691  0.60975911    -0.02100
C374        C  0.18658962  0.44558842  0.60942869     0.00500
C375        C  0.21281330  0.42828103  0.61091945    -0.22400
C376        C  0.23460737  0.44891121  0.61245647    -0.22600
C377        C  0.22117731  0.47834619  0.61103604     0.00400
H378        H  0.21590207  0.40329337  0.61017134     0.14200
H379        H  0.25767596  0.44257460  0.61431543     0.14200
N380        N  0.26571168  0.01049483  0.59797085    -0.02100
C381        C  0.26922573  0.04141646  0.59730443     0.00500
C382        C  0.24395277  0.05785968  0.61002521    -0.22400
C383        C  0.22413773  0.03653419  0.61873645    -0.22600
C384        C  0.23728198  0.00752659  0.60990779     0.00400
H385        H  0.24033257  0.08276739  0.61283420     0.14200
H386        H  0.20238978  0.04200692  0.63022436     0.14200
N387        N  0.32497954  0.45083179  0.59618306    -0.25900
N388        N  0.31487869  0.44517279  0.56916695    -0.33800
C389        C  0.29261072  0.46633055  0.56513828     0.02400
C390        C  0.28876689  0.48630717  0.59072921     0.08500
C391        C  0.30941452  0.47580710  0.61001272    -0.04600
H392        H  0.27968754  0.46654737  0.54555343     0.09100
H393        H  0.31227363  0.48504690  0.63275231     0.10300
Cu394      Cu  0.33079199  0.40753681  0.53970998     0.44200
Cu395      Cu  0.35861528  0.42309061  0.61398836     0.42000
Cu396      Cu  0.38515029  0.35393648  0.56813664     0.43900
N397        N  0.34848050  0.36694964  0.51568719    -0.33300
N398        N  0.36832598  0.34747112  0.52610574    -0.27600
C399        C  0.37286648  0.32223491  0.50693577    -0.03700
C400        C  0.35496600  0.32578340  0.98312474     0.08600
C401        C  0.33978712  0.35448374  0.48961932     0.02400
H402        H  0.38715723  0.30249240  0.51110656     0.10000
H403        H  0.32168018  0.36430038  0.97800126     0.09100
N404        N  0.39993175  0.36498958  0.61033537    -0.34800
N405        N  0.39126095  0.39066019  0.62685423    -0.26900
C406        C  0.40575438  0.39088503  0.65246176    -0.02200
C407        C  0.42426323  0.36413856  0.65189498     0.06400
C408        C  0.41960544  0.34809735  0.62509640     0.04500
H409        H  0.40245409  0.40871856  0.67061894     0.09600
H410        H  0.42953224  0.32563044  0.61698925     0.08500
N411        N  0.11128835  0.20440666  0.99181542    -0.02100
C412        C  0.11418315  0.19762909  0.52119199     0.00500
C413        C  0.11517972  0.22431063  0.53916624    -0.22400
C414        C  0.11319200  0.24855462  0.52003340    -0.22600
C415        C  0.11022571  0.23588116  0.99103844     0.00400
H416        H  0.11619813  0.22603116  0.56369127     0.14200
H417        H  0.11396890  0.27265886  0.52695637     0.14200
N418        N  0.09242296  0.28266115  0.96271681    -0.02100
C419        C  0.09299264  0.28901527  0.93271743     0.00500
C420        C  0.10759227  0.26515649  0.91467794    -0.22400
C421        C  0.11675055  0.24336867  0.93413801    -0.22600
C422        C  0.10647816  0.25401037  0.96347833     0.00400
H423        H  0.11195787  0.26418556  0.89005360     0.14200
H424        H  0.13010696  0.22234880  0.92736039     0.14200
N425        N  0.08555138  0.36063497  0.89533176    -0.25900
N426        N  0.06779901  0.34368729  0.88023747    -0.33800
C427        C  0.06437428  0.31719258  0.89456387     0.02400
C428        C  0.08066450  0.31729497  0.91985212     0.08500
C429        C  0.09381250  0.34526816  0.91954034    -0.04600
H430        H  0.05416324  0.29749627  0.88496063     0.09100
H431        H  0.11154523  0.35181777  0.93294890     0.10300
Cu432      Cu  0.05604415  0.35208598  0.83630229     0.44200
Cu433      Cu  0.10599015  0.39807617  0.87732511     0.42000
Cu434      Cu  0.10637592  0.39817119  0.79476599     0.43900
N435        N  0.05165854  0.36277126  0.79095240    -0.33300
N436        N  0.07080587  0.37918320  0.77543090    -0.27600
C437        C  0.05937104  0.38775434  0.74956648    -0.03700
C438        C  0.03135859  0.37666732  0.74867228     0.08600
C439        C  0.02758765  0.36047594  0.77524463     0.02400
H440        H  0.06851296  0.40509020  0.73515357     0.10000
H441        H  0.50697296  0.35217406  0.78483583     0.09100
N442        N  0.13453177  0.42304227  0.82014664    -0.34800
N443        N  0.13300965  0.42473831  0.85037279    -0.26900
C444        C  0.15386880  0.44302606  0.85953206    -0.02200
C445        C  0.16932425  0.45313141  0.83380973     0.06400
C446        C  0.15667537  0.43985624  0.80928891     0.04500
H447        H  0.15852387  0.44718894  0.88304907     0.09600
H448        H  0.16338079  0.44190705  0.78528972     0.08500
N449        N  0.47877259  0.10960617  0.68822751    -0.02100
C450        C  0.45169071  0.12164024  0.68216340     0.00500
C451        C  0.43736066  0.13734948  0.70752962    -0.22400
C452        C  0.45614298  0.13534464  0.73015827    -0.22600
C453        C  0.48137090  0.11800994  0.71813283     0.00400
H454        H  0.41617441  0.15037162  0.70890269     0.14200
H455        H  0.45237209  0.14756720  0.75217934     0.14200
N456        N  0.50825665  0.11216509  0.76576628    -0.02100
C457        C  0.03660344  0.11386167  0.77235843     0.00500
C458        C  0.05493862  0.11658058  0.74616444    -0.22400
C459        C  0.03690246  0.11745219  0.72246457    -0.22600
C460        C  0.50825952  0.11417696  0.73496688     0.00400
H461        H  0.07861607  0.11871733  0.74457797     0.14200
H462        H  0.04395322  0.12201529  0.69907802     0.14200
N463        N  0.37483356  0.19553746  0.89111328    -0.25900
N464        N  0.40263864  0.20066905  0.88315840    -0.33800
C465        C  0.41124848  0.22288221  0.90223075     0.02400
C466        C  0.38768385  0.23198885  0.92356808     0.08500
C467        C  0.36515713  0.21382764  0.91564082    -0.04600
H468        H  0.43392647  0.22898697  0.90296270     0.09100
H469        H  0.34513153  0.21006845  0.92939682     0.10300
Cu470      Cu  0.42840969  0.17056847  0.85283886     0.44200
Cu471      Cu  0.35377649  0.15829803  0.87422261     0.42000
Cu472      Cu  0.39538838  0.09976597  0.82451654     0.43900
N473        N  0.44994336  0.13705090  0.82277437    -0.33300
N474        N  0.43849833  0.11199380  0.81152191    -0.27600
C475        C  0.45840759  0.09785534  0.79003239    -0.03700
C476        C  0.48334265  0.11486092  0.78835221     0.08600
C477        C  0.47721843  0.13936950  0.80927739     0.02400
H478        H  0.45450531  0.07774823  0.77585055     0.10000
H479        H  0.49065762  0.15875510  0.81284966     0.09100
N480        N  0.35125763  0.09602884  0.84156619    -0.34800
N481        N  0.33624422  0.11796751  0.85925440    -0.26900
C482        C  0.30820674  0.11014920  0.86489363    -0.02200
C483        C  0.30514820  0.08166035  0.85047734     0.06400
C484        C  0.33296768  0.07351847  0.83564491     0.04500
H485        H  0.29097678  0.12462708  0.87791629     0.09600
H486        H  0.33922460  0.05398754  0.82003290     0.08500
N487        N  0.36603006  0.25057669  0.97549010    -0.02100
C488        C  0.38983005  0.24584761  0.95461362     0.00500
C489        C  0.41544069  0.24168599  0.96913856    -0.22400
C490        C  0.40689096  0.24142369  0.99974442    -0.22600
C491        C  0.37622203  0.24541952  0.00311456     0.00400
H492        H  0.43729074  0.23448470  0.95864239     0.14200
H493        H  0.42118439  0.23384841  0.51685308     0.14200
N494        N  0.34613557  0.30183455  0.96237796    -0.02100
C495        C  0.32818476  0.30841796  0.94002891     0.00500
C496        C  0.31029766  0.28440814  0.93538706    -0.22400
C497        C  0.31811824  0.26194145  0.95507554    -0.22600
C498        C  0.34156833  0.27215938  0.97017076     0.00400
H499        H  0.29499461  0.28231310  0.91792943     0.14200
H500        H  0.30983139  0.23909652  0.95557184     0.14200
N501        N  0.46768502  0.36525845  0.68352244    -0.02100
C502        C  0.44192640  0.35341007  0.67669120     0.00500
C503        C  0.43067364  0.33651547  0.70022311    -0.22400
C504        C  0.44977717  0.33874379  0.72278146    -0.22600
C505        C  0.47139009  0.35841265  0.71321300     0.00400
H506        H  0.40957379  0.32609934  0.70198275     0.14200
H507        H  0.44552187  0.33088081  0.74562740     0.14200
N508        N  0.47943395  0.38171175  0.73516692    -0.02100
C509        C  0.45965026  0.40537985  0.74523390     0.00500
C510        C  0.47349516  0.43266723  0.74779165    -0.22400
C511        C  0.50311039  0.42516824  0.74109901    -0.22600
C512        C  0.00649895  0.39333456  0.73529929     0.00400
H513        H  0.46381429  0.45461037  0.75772563     0.14200
H514        H  0.02039855  0.44034892  0.74591433     0.14200
N515        N  0.20002350  0.99793991  0.84700933    -0.02100
C516        C  0.19640853  0.47028507  0.83236744     0.00500
C517        C  0.22174042  0.45999720  0.81458156    -0.22400
C518        C  0.24187319  0.48186898  0.81830493    -0.22600
C519        C  0.22827162  0.00494045  0.83833555     0.00400
H520        H  0.22500804  0.43913688  0.79995781     0.14200
H521        H  0.26350470  0.48168204  0.80606937     0.14200
N522        N  0.27140273  0.03679765  0.84809700    -0.02100
C523        C  0.27655710  0.06732368  0.84743505     0.00500
C524        C  0.25040256  0.08435903  0.84400907    -0.22400
C525        C  0.22879889  0.06356496  0.84158262    -0.22600
C526        C  0.24216121  0.03447660  0.84461785     0.00400
H527        H  0.24754551  0.10917739  0.84225503     0.14200
H528        H  0.20622841  0.06907791  0.83657709     0.14200
N529        N  0.39883126  0.38958008  0.80058269    -0.25900
N530        N  0.38854833  0.41542202  0.78924934    -0.33800
C531        C  0.40724309  0.42329727  0.76596657     0.02400
C532        C  0.43059662  0.40127398  0.76190857     0.08500
C533        C  0.42471046  0.38038551  0.78456653    -0.04600
H534        H  0.40531254  0.44493961  0.75465361     0.09100
H535        H  0.43955388  0.36175716  0.79090882     0.10300
Cu536      Cu  0.35357037  0.44261080  0.80999167     0.44200
Cu537      Cu  0.37820919  0.37156633  0.84021958     0.42000
Cu538      Cu  0.31470350  0.41984437  0.87893393     0.43900
N539        N  0.32313975  0.47146629  0.83599626    -0.33300
N540        N  0.30847869  0.46379941  0.86152074    -0.27600
C541        C  0.28909927  0.48761347  0.87143155    -0.03700
C542        C  0.29247843  0.51136298  0.85136970     0.08600
C543        C  0.31370200  0.49995026  0.82888658     0.02400
H544        H  0.27254653  0.48697921  0.89053158     0.10000
H545        H  0.31957492  0.50997696  0.80728556     0.09100
N546        N  0.32847416  0.37572163  0.89206323    -0.34800
N547        N  0.35201076  0.35905552  0.87917021    -0.26900
C548        C  0.35551021  0.33298638  0.89460510    -0.02200
C549        C  0.33311114  0.33307864  0.91804810     0.06400
C550        C  0.31618107  0.36031722  0.91548280     0.04500
H551        H  0.37289226  0.31500110  0.88894455     0.09600
H552        H  0.29660144  0.36860952  0.92988007     0.08500
N553        N  0.03372615  0.59472632  0.12493902    -0.25900
N554        N  0.04349032  0.57379335  0.14337119    -0.33800
C555        C  0.02405626  0.57410102  0.16850865     0.02400
C556        C  0.00149724  0.59670625  0.16547094     0.08500
C557        C  0.00839211  0.60903700  0.13756204    -0.04600
H558        H  0.02710718  0.56048220  0.18821087     0.09100
H559        H  0.99732251  0.62883861  0.12823984     0.10300
Cu560      Cu  0.08524539  0.54983269  0.13341412     0.44200
Cu561      Cu  0.05768782  0.60876976  0.08681932     0.42000
Cu562      Cu  0.13259367  0.58135615  0.07040669     0.43900
N563        N  0.12732078  0.53059660  0.11564877    -0.33300
N564        N  0.14353698  0.54148940  0.09245742    -0.27600
C565        C  0.16868956  0.52342126  0.08644424    -0.03700
C566        C  0.16867521  0.50047534  0.10726445     0.08600
C567        C  0.14214242  0.50544295  0.12527578     0.02400
H568        H  0.18589074  0.52714570  0.06867854     0.10000
H569        H  0.13441961  0.49222410  0.14432665     0.09100
N570        N  0.11538396  0.62174820  0.05336328    -0.34800
N571        N  0.08714228  0.63099599  0.05871980    -0.26900
C572        C  0.08244144  0.65878858  0.04705119    -0.02200
C573        C  0.10898915  0.66739888  0.03364263     0.06400
C574        C  0.12956503  0.64358147  0.03811282     0.04500
H575        H  0.06159208  0.67245239  0.04962886     0.09600
H576        H  0.15315479  0.64274711  0.03193087     0.08500
N577        N  0.08970652  0.84166765  0.02296196    -0.25900
N578        N  0.06573789  0.82745599  0.03215928    -0.33800
C579        C  0.06206829  0.80443281  0.01120800     0.02400
C580        C  0.08466962  0.80487445  0.98789563     0.08500
C581        C  0.10173990  0.82853549  0.99619229    -0.04600
H582        H  0.04501747  0.78807846  0.01329489     0.09100
H583        H  0.12237371  0.83460953  0.48457515     0.10300
Cu584      Cu  0.04097809  0.84018914  0.07426798     0.44200
Cu585      Cu  0.10817090  0.87562154  0.04846947     0.42000
Cu586      Cu  0.07450945  0.89698185  0.12348287     0.43900
N587        N  0.02169443  0.85850977  0.11736116    -0.33300
N588        N  0.03387136  0.87896765  0.13487106    -0.27600
C589        C  0.01618640  0.88546862  0.16087539    -0.03700
C590        C  0.99147793  0.86838144  0.15984996     0.08600
C591        C  0.99585912  0.85146419  0.13197785     0.02400
H592        H  0.02114220  0.90169766  0.17868186     0.10000
H593        H  0.48185890  0.83437998  0.12342068     0.09100
N594        N  0.11512264  0.91199861  0.10693906    -0.34800
N595        N  0.12726575  0.90435659  0.07906224    -0.26900
C596        C  0.15403450  0.91603360  0.07550035    -0.02200
C597        C  0.15882478  0.93207627  0.10229357     0.06400
C598        C  0.13386686  0.92882185  0.12187854     0.04500
H599        H  0.16930802  0.91224233  0.05526762     0.09600
H600        H  0.13012112  0.93687610  0.14559207     0.08500
N601        N  0.41037188  0.60976730  0.11640784    -0.25900
N602        N  0.41026186  0.64028896  0.11857667    -0.33800
C603        C  0.42781720  0.64864019  0.14011266     0.02400
C604        C  0.43968801  0.62224804  0.15217348     0.08500
C605        C  0.42808489  0.59791096  0.13673332    -0.04600
H606        H  0.42968003  0.67226892  0.14836116     0.09100
H607        H  0.42965039  0.57380924  0.14228450     0.10300
Cu608      Cu  0.38318292  0.67015182  0.09614960     0.44200
Cu609      Cu  0.38027909  0.58718776  0.09200996     0.42000
Cu610      Cu  0.33081600  0.63971506  0.05141814     0.43900
N611        N  0.36219131  0.69671296  0.06543232    -0.33300
N612        N  0.34459018  0.68493229  0.04620120    -0.27600
C613        C  0.34259869  0.70414041  0.02285856    -0.03700
C614        C  0.35987194  0.72921251  0.02770786     0.08600
C615        C  0.37127851  0.72368493  0.05542333     0.02400
H616        H  0.33311722  0.69803672  0.50179887     0.10000
H617        H  0.38911805  0.73546952  0.06471068     0.09100
N618        N  0.32077653  0.59559771  0.06639022    -0.34800
N619        N  0.33905658  0.57629645  0.07945709    -0.26900
C620        C  0.32418119  0.55230448  0.08985714    -0.02200
C621        C  0.29503743  0.55666765  0.08339799     0.06400
C622        C  0.29374616  0.58434038  0.06857893     0.04500
H623        H  0.33311765  0.53513110  0.10430934     0.09600
H624        H  0.27398531  0.59666386  0.06209796     0.08500
N625        N  0.09776143  0.65603162  0.42594567    -0.25900
N626        N  0.12055650  0.64017633  0.43606446    -0.33800
C627        C  0.12853579  0.65516952  0.46123231     0.02400
C628        C  0.10994840  0.68156838  0.46716380     0.08500
C629        C  0.09041135  0.68127089  0.44467406    -0.04600
H630        H  0.14684917  0.64765541  0.47389874     0.09100
H631        H  0.07254959  0.69825880  0.44180538     0.10300
Cu632      Cu  0.14037045  0.59836344  0.41615875     0.44200
Cu633      Cu  0.07793625  0.64366706  0.38653804     0.42000
Cu634      Cu  0.09316009  0.56369869  0.36648728     0.43900
N635        N  0.15247801  0.55650807  0.39141414    -0.33300
N636        N  0.13379822  0.54378811  0.37391655    -0.27600
C637        C  0.14772663  0.52014986  0.35683070    -0.03700
C638        C  0.17672729  0.51732463  0.36396276     0.08600
C639        C  0.17907603  0.54060721  0.38628144     0.02400
H640        H  0.13807162  0.50807736  0.33846206     0.10000
H641        H  0.19888991  0.54679460  0.39648621     0.09100
N642        N  0.06717614  0.59205481  0.34221893    -0.34800
N643        N  0.06291670  0.62222172  0.34803017    -0.26900
C644        C  0.05040615  0.63489996  0.32436938    -0.02200
C645        C  0.04666704  0.61132873  0.30303778     0.06400
C646        C  0.05755491  0.58460324  0.31499450     0.04500
H647        H  0.04560957  0.65943596  0.32227504     0.09600
H648        H  0.06012822  0.56173421  0.30386478     0.08500
N649        N  0.19137037  0.97615854  0.10975723    -0.02100
C650        C  0.18659326  0.94559003  0.10942747     0.00500
C651        C  0.21281694  0.92828328  0.11092067    -0.22400
C652        C  0.23461054  0.94891386  0.11245855    -0.22600
C653        C  0.22118023  0.97834853  0.11103634     0.00400
H654        H  0.21590597  0.90329559  0.11017372     0.14200
H655        H  0.25767916  0.94257765  0.11432001     0.14200
N656        N  0.26570788  0.51049776  0.09796801    -0.02100
C657        C  0.26922232  0.54141944  0.09730412     0.00500
C658        C  0.24394907  0.55786205  0.11002497    -0.22400
C659        C  0.22413327  0.53653640  0.11873346    -0.22600
C660        C  0.23727752  0.50752920  0.10990335     0.00400
H661        H  0.24032923  0.58276931  0.11283569     0.14200
H662        H  0.20238503  0.54200912  0.13022074     0.14200
N663        N  0.32498215  0.95083415  0.09618610    -0.25900
N664        N  0.31488121  0.94517517  0.06917005    -0.33800
C665        C  0.29261334  0.96633285  0.06514122     0.02400
C666        C  0.28876943  0.98630938  0.09073199     0.08500
C667        C  0.30941709  0.97580954  0.11001560    -0.04600
H668        H  0.27969025  0.96654954  0.04555625     0.09100
H669        H  0.31227617  0.98504948  0.13275500     0.10300
Cu670      Cu  0.33079354  0.90753967  0.03971277     0.44200
Cu671      Cu  0.35861804  0.92309313  0.11399143     0.42000
Cu672      Cu  0.38515205  0.85393973  0.06813765     0.43900
N673        N  0.34848117  0.86695313  0.01568904    -0.33300
N674        N  0.36832709  0.84747468  0.02610687    -0.27600
C675        C  0.37286673  0.82223856  0.00693678    -0.03700
C676        C  0.35496876  0.82578575  0.48312238     0.08600
C677        C  0.33978669  0.85448732  0.98962160     0.02400
H678        H  0.38715759  0.80249586  0.01110718     0.10000
H679        H  0.32168274  0.86430283  0.47800212     0.09100
N680        N  0.39993375  0.86499141  0.11033682    -0.34800
N681        N  0.39126360  0.89066192  0.12685626    -0.26900
C682        C  0.40575758  0.89088593  0.15246342    -0.02200
C683        C  0.42426594  0.86413901  0.15189597     0.06400
C684        C  0.41960723  0.84809840  0.12509730     0.04500
H685        H  0.40245830  0.90871941  0.17062081     0.09600
H686        H  0.42953333  0.82563104  0.11698953     0.08500
N687        N  0.11129041  0.70440588  0.49181856    -0.02100
C688        C  0.11416711  0.69763181  0.02119599     0.00500
C689        C  0.11516158  0.72431341  0.03917062    -0.22400
C690        C  0.11317755  0.74855735  0.02003731    -0.22600
C691        C  0.11023050  0.73588019  0.49104142     0.00400
H692        H  0.11617750  0.72603407  0.06369598     0.14200
H693        H  0.11395461  0.77266153  0.02696054     0.14200
N694        N  0.09242977  0.78266031  0.46271914    -0.02100
C695        C  0.09300097  0.78901470  0.43271972     0.00500
C696        C  0.10760123  0.76515595  0.41468069    -0.22400
C697        C  0.11675831  0.74336788  0.43414116    -0.22600
C698        C  0.10648487  0.75400964  0.46348113     0.00400
H699        H  0.11196746  0.76418491  0.39005626     0.14200
H700        H  0.13011506  0.72234802  0.42736441     0.14200
N701        N  0.08556170  0.86063368  0.39533250    -0.25900
N702        N  0.06780747  0.84368705  0.38023979    -0.33800
C703        C  0.06438208  0.81719282  0.39456702     0.02400
C704        C  0.08067369  0.81729465  0.41985421     0.08500
C705        C  0.09382328  0.84526684  0.41954096    -0.04600
H706        H  0.05416938  0.79749735  0.38496516     0.09100
H707        H  0.11155675  0.85181564  0.43294845     0.10300
Cu708      Cu  0.05604938  0.85208711  0.33630585     0.44200
Cu709      Cu  0.10600156  0.89807319  0.37732375     0.42000
Cu710      Cu  0.10638206  0.89816867  0.29476499     0.43900
N711        N  0.05166045  0.86277392  0.29095669    -0.33300
N712        N  0.07080808  0.87918457  0.27543367    -0.27600
C713        C  0.05937233  0.88775574  0.24956982    -0.03700
C714        C  0.03135940  0.87666948  0.24867705     0.08600
C715        C  0.02758856  0.86047947  0.27525031     0.02400
H716        H  0.06851491  0.90509031  0.23515531     0.10000
H717        H  0.50697409  0.85217767  0.28484220     0.09100
N718        N  0.13454111  0.92303789  0.32014337    -0.34800
N719        N  0.13302074  0.92473395  0.35036952    -0.26900
C720        C  0.15388018  0.94302214  0.35952737    -0.02200
C721        C  0.16933419  0.95312752  0.33380421     0.06400
C722        C  0.15668415  0.93985191  0.30928437     0.04500
H723        H  0.15853637  0.94718562  0.38304396     0.09600
H724        H  0.16338774  0.94190365  0.28528462     0.08500
N725        N  0.47876633  0.60960587  0.18823365    -0.02100
C726        C  0.45168373  0.62163897  0.18217055     0.00500
C727        C  0.43735342  0.63734656  0.20753774    -0.22400
C728        C  0.45613636  0.63534156  0.23016589    -0.22600
C729        C  0.48136493  0.61800866  0.21813915     0.00400
H730        H  0.41616649  0.65036813  0.20891184     0.14200
H731        H  0.45236583  0.64756336  0.25218760     0.14200
N732        N  0.50825425  0.61216568  0.26577058    -0.02100
C733        C  0.03660121  0.61386569  0.27236072     0.00500
C734        C  0.05493408  0.61658764  0.24616570    -0.22400
C735        C  0.03689648  0.61745710  0.22246711    -0.22600
C736        C  0.50825487  0.61417808  0.23497144     0.00400
H737        H  0.07861096  0.61872690  0.24457765     0.14200
H738        H  0.04394547  0.62202116  0.19908015     0.14200
N739        N  0.37483457  0.69553188  0.39112364    -0.25900
N740        N  0.40264033  0.70066204  0.38317036    -0.33800
C741        C  0.41124924  0.72287673  0.40224156     0.02400
C742        C  0.38768315  0.73198611  0.42357617     0.08500
C743        C  0.36515657  0.71382484  0.41564875    -0.04600
H744        H  0.43392732  0.72898127  0.40297481     0.09100
H745        H  0.34512952  0.71006817  0.42940342     0.10300
Cu746      Cu  0.42841176  0.67055931  0.35285321     0.44200
Cu747      Cu  0.35377822  0.65829164  0.37423408     0.42000
Cu748      Cu  0.39539040  0.59975750  0.32452898     0.43900
N749        N  0.44994438  0.63704407  0.32278529    -0.33300
N750        N  0.43849946  0.61198725  0.31153194    -0.27600
C751        C  0.45840737  0.59785154  0.29003937    -0.03700
C752        C  0.48334150  0.61485865  0.28835818     0.08600
C753        C  0.47721804  0.63936512  0.30928599     0.02400
H754        H  0.45450464  0.57774521  0.27585637     0.10000
H755        H  0.49065648  0.65875144  0.31285842     0.09100
N756        N  0.35125896  0.59602206  0.34157785    -0.34800
N757        N  0.33624583  0.61796159  0.35926534    -0.26900
C758        C  0.30820758  0.61014519  0.36490275    -0.02200
C759        C  0.30514819  0.58165682  0.35048588     0.06400
C760        C  0.33296804  0.57351292  0.33565536     0.04500
H761        H  0.29097769  0.62462414  0.37792411     0.09600
H762        H  0.33922469  0.55398146  0.32004352     0.08500
N763        N  0.36602529  0.75057940  0.47549494    -0.02100
C764        C  0.38982702  0.74584734  0.45462106     0.00500
C765        C  0.41543561  0.74168417  0.46914904    -0.22400
C766        C  0.40688274  0.74142407  0.49975431    -0.22600
C767        C  0.37621388  0.74542306  0.50312118     0.00400
H768        H  0.43728575  0.73448022  0.45865546     0.14200
H769        H  0.42118563  0.73385286  0.01685195     0.14200
N770        N  0.34613516  0.80183740  0.46237712    -0.02100
C771        C  0.32818433  0.80842179  0.44002827     0.00500
C772        C  0.31029630  0.78441272  0.43538654    -0.22400
C773        C  0.31811582  0.76194571  0.45507519    -0.22600
C774        C  0.34156571  0.77216302  0.47017118     0.00400
H775        H  0.29499296  0.78231856  0.41792900     0.14200
H776        H  0.30982792  0.73910130  0.45557148     0.14200
N777        N  0.46768798  0.86525883  0.18352320    -0.02100
C778        C  0.44192950  0.85340992  0.17669171     0.00500
C779        C  0.43067755  0.83651370  0.20022286    -0.22400
C780        C  0.44978129  0.83874191  0.22278108    -0.22600
C781        C  0.47139345  0.85841210  0.21321344     0.00400
H782        H  0.40957753  0.82609676  0.20198244     0.14200
H783        H  0.44552673  0.83087818  0.24562687     0.14200
N784        N  0.47943561  0.88171118  0.23516838    -0.02100
C785        C  0.45965099  0.90537933  0.24523275     0.00500
C786        C  0.47349488  0.93266741  0.24778942    -0.22400
C787        C  0.50311053  0.92516896  0.24109926    -0.22600
C788        C  0.00650031  0.89333512  0.23530183     0.00400
H789        H  0.46381298  0.95461069  0.25772162     0.14200
H790        H  0.02039861  0.94035070  0.24591527     0.14200
N791        N  0.20002096  0.49794022  0.34701185    -0.02100
C792        C  0.19641712  0.97028335  0.33236039     0.00500
C793        C  0.22174860  0.95999784  0.31457249    -0.22400
C794        C  0.24187990  0.98187136  0.31829497    -0.22600
C795        C  0.22826861  0.50494172  0.33833696     0.00400
H796        H  0.22501668  0.93913797  0.29994785     0.14200
H797        H  0.26351088  0.98168651  0.30605820     0.14200
N798        N  0.27140108  0.53679619  0.34810006    -0.02100
C799        C  0.27655630  0.56732221  0.34744224     0.00500
C800        C  0.25040193  0.58435932  0.34401928    -0.22400
C801        C  0.22879752  0.56356633  0.34159063    -0.22600
C802        C  0.24215919  0.53447679  0.34462183     0.00400
H803        H  0.24754528  0.60917824  0.34226872     0.14200
H804        H  0.20622698  0.56908109  0.33658672     0.14200
N805        N  0.39883096  0.88958034  0.30058036    -0.25900
N806        N  0.38854869  0.91542241  0.28924674    -0.33800
C807        C  0.40724365  0.92329725  0.26596400     0.02400
C808        C  0.43059691  0.90127360  0.26190647     0.08500
C809        C  0.42471007  0.88038514  0.28456439    -0.04600
H810        H  0.40531375  0.94493994  0.25465137     0.09100
H811        H  0.43955335  0.86175688  0.29090732     0.10300
Cu812      Cu  0.35357207  0.94261235  0.30998953     0.44200
Cu813      Cu  0.37820820  0.87156859  0.34021794     0.42000
Cu814      Cu  0.31470524  0.91985048  0.37893409     0.43900
N815        N  0.32314303  0.97146992  0.33599321    -0.33300
N816        N  0.30848164  0.96380502  0.36151819    -0.27600
C817        C  0.28910252  0.98762001  0.37142723    -0.03700
C818        C  0.29248255  0.01136821  0.35136382     0.08600
C819        C  0.31370616  0.99995351  0.32888161     0.02400
H820        H  0.27254948  0.98698711  0.39052708     0.10000
H821        H  0.31957916  0.00997815  0.30727973     0.09100
N822        N  0.32847466  0.87572688  0.39206366    -0.34800
N823        N  0.35201006  0.85905969  0.37916953    -0.26900
C824        C  0.35550898  0.83299015  0.39460394    -0.02200
C825        C  0.33311087  0.83308312  0.41804799     0.06400
C826        C  0.31618179  0.86032263  0.41548364     0.04500
H827        H  0.37288993  0.81500427  0.38894232     0.09600
H828        H  0.29660300  0.86861561  0.42988185     0.08500
N829        N  0.03372994  0.59472697  0.62493829    -0.25900
N830        N  0.04349244  0.57379320  0.64337060    -0.33800
C831        C  0.02405706  0.57410108  0.66850703     0.02400
C832        C  0.00149897  0.59670708  0.66546843     0.08500
C833        C  0.00839572  0.60903828  0.63756019    -0.04600
H834        H  0.02710603  0.56048131  0.68820897     0.09100
H835        H  0.99732697  0.62884039  0.62823763     0.10300
Cu836      Cu  0.08524685  0.54983059  0.63341508     0.44200
Cu837      Cu  0.05769341  0.60876917  0.58681922     0.42000
Cu838      Cu  0.13259907  0.58135418  0.57041080     0.43900
N839        N  0.12732204  0.53059300  0.61565100    -0.33300
N840        N  0.14353955  0.54148577  0.59246049    -0.27600
C841        C  0.16869165  0.52341675  0.58644769    -0.03700
C842        C  0.16867565  0.50047029  0.60726743     0.08600
C843        C  0.14214248  0.50543865  0.62527805     0.02400
H844        H  0.18589369  0.52714102  0.56868267     0.10000
H845        H  0.13441861  0.49221981  0.64432868     0.09100
N846        N  0.11539071  0.62174586  0.55336508    -0.34800
N847        N  0.08714880  0.63099361  0.55871929    -0.26900
C848        C  0.08244870  0.65878548  0.54704912    -0.02200
C849        C  0.10899696  0.66739546  0.53364174     0.06400
C850        C  0.12957263  0.64357853  0.53811454     0.04500
H851        H  0.06159905  0.67244943  0.54962520     0.09600
H852        H  0.15316264  0.64274424  0.53193470     0.08500
N853        N  0.08971277  0.84166479  0.52296418    -0.25900
N854        N  0.06574434  0.82745223  0.53216084    -0.33800
C855        C  0.06207620  0.80442882  0.51120929     0.02400
C856        C  0.08467795  0.80487150  0.48789738     0.08500
C857        C  0.10174705  0.82853329  0.49619464    -0.04600
H858        H  0.04502543  0.78807368  0.51329534     0.09100
H859        H  0.12236636  0.83461104  0.98457235     0.10300
Cu860      Cu  0.04098275  0.84018633  0.57426893     0.44200
Cu861      Cu  0.10817541  0.87561937  0.54847231     0.42000
Cu862      Cu  0.07450733  0.89698809  0.62348094     0.43900
N863        N  0.02169657  0.85850915  0.61736097    -0.33300
N864        N  0.03387063  0.87897087  0.63486914    -0.27600
C865        C  0.01618466  0.88547248  0.66087273    -0.03700
C866        C  0.99147858  0.86838161  0.65984883     0.08600
C867        C  0.99586200  0.85146183  0.63197818     0.02400
H868        H  0.02113806  0.90170462  0.67867764     0.10000
H869        H  0.48186377  0.83437515  0.62342243     0.09100
N870        N  0.11512307  0.91200106  0.60694015    -0.34800
N871        N  0.12726878  0.90435547  0.57906507    -0.26900
C872        C  0.15403862  0.91603025  0.57550514    -0.02200
C873        C  0.15882697  0.93207522  0.60229779     0.06400
C874        C  0.13386661  0.92882445  0.62188043     0.04500
H875        H  0.16931403  0.91223611  0.55527422     0.09600
H876        H  0.13011859  0.93688103  0.64559336     0.08500
N877        N  0.41037197  0.60976538  0.61640349    -0.25900
N878        N  0.41026198  0.64028691  0.61857190    -0.33800
C879        C  0.42781844  0.64863844  0.64010684     0.02400
C880        C  0.43968995  0.62224671  0.65216755     0.08500
C881        C  0.42808609  0.59790950  0.63672830    -0.04600
H882        H  0.42968108  0.67226690  0.64835530     0.09100
H883        H  0.42965129  0.57380838  0.64228029     0.10300
Cu884      Cu  0.38318034  0.67014954  0.59614764     0.44200
Cu885      Cu  0.38027776  0.58718557  0.59200774     0.42000
Cu886      Cu  0.33081144  0.63971344  0.55141904     0.43900
N887        N  0.36218708  0.69671138  0.56543200    -0.33300
N888        N  0.34458604  0.68493070  0.54620087    -0.27600
C889        C  0.34259493  0.70413860  0.52285787    -0.03700
C890        C  0.35986844  0.72921057  0.52770702     0.08600
C891        C  0.37127421  0.72368334  0.55542294     0.02400
H892        H  0.33312038  0.69803901  0.00179970     0.10000
H893        H  0.38911399  0.73546755  0.56470994     0.09100
N894        N  0.32077343  0.59559561  0.56639209    -0.34800
N895        N  0.33905449  0.57629420  0.57945737    -0.26900
C896        C  0.32417994  0.55230173  0.58985769    -0.02200
C897        C  0.29503566  0.55666450  0.58340047     0.06400
C898        C  0.29374322  0.58433766  0.56858198     0.04500
H899        H  0.33311760  0.53512786  0.60430886     0.09600
H900        H  0.27398220  0.59666094  0.56210275     0.08500
N901        N  0.09775297  0.65603037  0.92594781    -0.25900
N902        N  0.12054997  0.64017740  0.93606534    -0.33800
C903        C  0.12852960  0.65517211  0.96123230     0.02400
C904        C  0.10994028  0.68156950  0.96716434     0.08500
C905        C  0.09040166  0.68126939  0.94467623    -0.04600
H906        H  0.14684446  0.64766019  0.97389735     0.09100
H907        H  0.07253878  0.69825562  0.94180810     0.10300
Cu908      Cu  0.14036607  0.59836547  0.91615898     0.44200
Cu909      Cu  0.07792701  0.64366467  0.88654121     0.42000
Cu910      Cu  0.09315542  0.56369936  0.86648731     0.43900
N911        N  0.15247408  0.55651058  0.89141335    -0.33300
N912        N  0.13379438  0.54379055  0.87391576    -0.27600
C913        C  0.14772271  0.52015212  0.85683008    -0.03700
C914        C  0.17672316  0.51732658  0.86396238     0.08600
C915        C  0.17907197  0.54060934  0.88628088     0.02400
H916        H  0.13806757  0.50807917  0.83846200     0.10000
H917        H  0.19888561  0.54679612  0.89648612     0.09100
N918        N  0.06717017  0.59205451  0.84221944    -0.34800
N919        N  0.06290881  0.62222088  0.84803213    -0.26900
C920        C  0.05039836  0.63489963  0.82437146    -0.02200
C921        C  0.04666158  0.61132926  0.80303824     0.06400
C922        C  0.05755073  0.58460374  0.81499385     0.04500
H923        H  0.04560089  0.65943542  0.82227809     0.09600
H924        H  0.06012612  0.56173594  0.80386283     0.08500
N925        N  0.19137222  0.97615802  0.60976092    -0.02100
C926        C  0.18659504  0.94558950  0.60943256     0.00500
C927        C  0.21281882  0.92828288  0.61092526    -0.22400
C928        C  0.23461251  0.94891347  0.61246144    -0.22600
C929        C  0.22118220  0.97834798  0.61103857     0.00400
H930        H  0.21590794  0.90329520  0.61017891     0.14200
H931        H  0.25768119  0.94257739  0.61432129     0.14200
N932        N  0.26570744  0.51049374  0.59797141    -0.02100
C933        C  0.26922121  0.54141565  0.59730754     0.00500
C934        C  0.24394802  0.55785777  0.61002953    -0.22400
C935        C  0.22413293  0.53653178  0.61873872    -0.22600
C936        C  0.23727740  0.50752478  0.60990776     0.00400
H937        H  0.24032775  0.58276532  0.61284027     0.14200
H938        H  0.20238459  0.54200397  0.63022697     0.14200
N939        N  0.32498258  0.95083205  0.59618277    -0.25900
N940        N  0.31488277  0.94517444  0.56916600    -0.33800
C941        C  0.29261517  0.96633253  0.56513729     0.02400
C942        C  0.28877048  0.98630782  0.59072893     0.08500
C943        C  0.30941729  0.97580699  0.61001284    -0.04600
H944        H  0.27969294  0.96655034  0.54555178     0.09100
H945        H  0.31227544  0.98504581  0.63275260     0.10300
Cu946      Cu  0.33079665  0.90754011  0.53970786     0.44200
Cu947      Cu  0.35861739  0.92309043  0.61398827     0.42000
Cu948      Cu  0.38515504  0.85393933  0.56813346     0.43900
N949        N  0.34848436  0.86695304  0.51568481    -0.33300
N950        N  0.36832953  0.84747406  0.52610306    -0.27600
C951        C  0.37286815  0.82223730  0.50693358    -0.03700
C952        C  0.35496721  0.82578690  0.98312563     0.08600
C953        C  0.33978931  0.85448688  0.48961773     0.02400
H954        H  0.38715812  0.80249418  0.51110438     0.10000
H955        H  0.32167966  0.86430293  0.97800607     0.09100
N956        N  0.39993626  0.86499149  0.61033272    -0.34800
N957        N  0.39126398  0.89066099  0.62685292    -0.26900
C958        C  0.40575688  0.89088543  0.65246067    -0.02200
C959        C  0.42426711  0.86413989  0.65189275     0.06400
C960        C  0.41961051  0.84809952  0.62509317     0.04500
H961        H  0.40245557  0.90871842  0.67061878     0.09600
H962        H  0.42953798  0.82563294  0.61698505     0.08500
N963        N  0.11128171  0.70440806  0.99181827    -0.02100
C964        C  0.11417574  0.69762855  0.52119602     0.00500
C965        C  0.11517105  0.72430938  0.53917147    -0.22400
C966        C  0.11318745  0.74855403  0.52003895    -0.22600
C967        C  0.11022066  0.73588243  0.99104015     0.00400
H968        H  0.11618672  0.72602904  0.56369688     0.14200
H969        H  0.11396512  0.77265778  0.52696286     0.14200
N970        N  0.09241979  0.78266252  0.96271765    -0.02100
C971        C  0.09298888  0.78901621  0.93271819     0.00500
C972        C  0.10758624  0.76515616  0.91467855    -0.22400
C973        C  0.11674372  0.74336799  0.93413883    -0.22600
C974        C  0.10647322  0.75401095  0.96347941     0.00400
H975        H  0.11195107  0.76418489  0.89005375     0.14200
H976        H  0.13009922  0.72234731  0.92736146     0.14200
N977        N  0.08555772  0.86063680  0.89533258    -0.25900
N978        N  0.06780119  0.84369303  0.88023987    -0.33800
C979        C  0.06437269  0.81719903  0.89456663     0.02400
C980        C  0.08066455  0.81729795  0.91985355     0.08500
C981        C  0.09381774  0.84526813  0.91954053    -0.04600
H982        H  0.05415757  0.79750515  0.88496450     0.09100
H983        H  0.11155236  0.85181393  0.93294794     0.10300
Cu984      Cu  0.05604465  0.85209510  0.83630605     0.44200
Cu985      Cu  0.10600131  0.89807431  0.87732424     0.42000
Cu986      Cu  0.10637952  0.89817466  0.79476532     0.43900
N987        N  0.05165796  0.86278021  0.79095631    -0.33300
N988        N  0.07080593  0.87919026  0.77543337    -0.27600
C989        C  0.05937110  0.88775986  0.74956842    -0.03700
C990        C  0.03135849  0.87667312  0.74867505     0.08600
C991        C  0.02758686  0.86048441  0.77524888     0.02400
H992        H  0.06851382  0.90509349  0.73515334     0.10000
H993        H  0.50697218  0.85218283  0.78484008     0.09100
N994        N  0.13453976  0.92304152  0.82014466    -0.34800
N995        N  0.13302036  0.92473566  0.85037069    -0.26900
C996        C  0.15388040  0.94302283  0.85952906    -0.02200
C997        C  0.16933383  0.95312956  0.83380635     0.06400
C998        C  0.15668289  0.93985585  0.80928614     0.04500
H999        H  0.15853716  0.94718489  0.88304562     0.09600
H1000       H  0.16338573  0.94190905  0.78528707     0.08500
N1001       N  0.47876697  0.60960636  0.68822994    -0.02100
C1002       C  0.45168447  0.62163841  0.68216528     0.00500
C1003       C  0.43735285  0.63734613  0.70753150    -0.22400
C1004       C  0.45613488  0.63534240  0.73016057    -0.22600
C1005       C  0.48136429  0.61801008  0.71813535     0.00400
H1006       H  0.41616559  0.65036670  0.70890461     0.14200
H1007       H  0.45236295  0.64756440  0.75218153     0.14200
N1008       N  0.50825088  0.61216856  0.76576880    -0.02100
C1009       C  0.03659754  0.61386717  0.77236049     0.00500
C1010       C  0.05493200  0.61658716  0.74616621    -0.22400
C1011       C  0.03689555  0.61745709  0.72246660    -0.22600
C1012       C  0.50825319  0.61418001  0.73496945     0.00400
H1013       H  0.07860910  0.61872472  0.74457917     0.14200
H1014       H  0.04394602  0.62201968  0.69907981     0.14200
N1015       N  0.37483167  0.69552717  0.89112871    -0.25900
N1016       N  0.40263584  0.70066088  0.88317113    -0.33800
C1017       C  0.41124500  0.72287749  0.90223992     0.02400
C1018       C  0.38768063  0.73198472  0.92357726     0.08500
C1019       C  0.36515496  0.71381981  0.91565436    -0.04600
H1020       H  0.43392277  0.72898535  0.90296925     0.09100
H1021       H  0.34513013  0.71006114  0.92941230     0.10300
Cu1022     Cu  0.42840630  0.67056105  0.85285055     0.44200
Cu1023     Cu  0.35377687  0.65828422  0.87424219     0.42000
Cu1024     Cu  0.39538665  0.59975862  0.82452519     0.43900
N1025       N  0.44993918  0.63704724  0.82278149    -0.33300
N1026       N  0.43849492  0.61199020  0.81152808    -0.27600
C1027       C  0.45840340  0.59785467  0.79003587    -0.03700
C1028       C  0.48333715  0.61486221  0.78835513     0.08600
C1029       C  0.47721308  0.63936866  0.80928270     0.02400
H1030       H  0.45450156  0.57774820  0.77585329     0.10000
H1031       H  0.49065139  0.65875461  0.81285562     0.09100
N1032       N  0.35125695  0.59601911  0.84157772    -0.34800
N1033       N  0.33624479  0.61795507  0.85927046    -0.26900
C1034       C  0.30820724  0.61013696  0.86490927    -0.02200
C1035       C  0.30514717  0.58165137  0.85048755     0.06400
C1036       C  0.33296585  0.57351078  0.83565273     0.04500
H1037       H  0.29097781  0.62461360  0.87793440     0.09600
H1038       H  0.33922083  0.55398322  0.82003641     0.08500
N1039       N  0.36602603  0.75058078  0.97549584    -0.02100
C1040       C  0.38982665  0.74584811  0.95462072     0.00500
C1041       C  0.41543623  0.74168558  0.96914730    -0.22400
C1042       C  0.40688497  0.74142654  0.99975309    -0.22600
C1043       C  0.37621612  0.74542536  0.00312156     0.00400
H1044       H  0.43728595  0.73448119  0.95865269     0.14200
H1045       H  0.42118254  0.73385035  0.51685375     0.14200
N1046       N  0.34613479  0.80183873  0.96237951    -0.02100
C1047       C  0.32818433  0.80842302  0.94003026     0.00500
C1048       C  0.31029694  0.78441360  0.93538763    -0.22400
C1049       C  0.31811663  0.76194650  0.95507609    -0.22600
C1050       C  0.34156595  0.77216407  0.97017283     0.00400
H1051       H  0.29499404  0.78231905  0.91792976     0.14200
H1052       H  0.30982921  0.73910214  0.95557198     0.14200
N1053       N  0.46768780  0.86525987  0.68352153    -0.02100
C1054       C  0.44192967  0.85341094  0.67668923     0.00500
C1055       C  0.43067590  0.83651659  0.70022100    -0.22400
C1056       C  0.44977830  0.83874549  0.72278040    -0.22600
C1057       C  0.47139154  0.85841439  0.71321261     0.00400
H1058       H  0.40957561  0.82610057  0.70197960     0.14200
H1059       H  0.44552242  0.83088258  0.74562675     0.14200
N1060       N  0.47943467  0.88171356  0.73516693    -0.02100
C1061       C  0.45965051  0.90538199  0.74523229     0.00500
C1062       C  0.47349449  0.93267027  0.74778633    -0.22400
C1063       C  0.50310976  0.92517152  0.74109389    -0.22600
C1064       C  0.00649937  0.89333733  0.73529829     0.00400
H1065       H  0.46381327  0.95461443  0.75771846     0.14200
H1066       H  0.02039790  0.94035305  0.74590756     0.14200
N1067       N  0.20001630  0.49793981  0.84701348    -0.02100
C1068       C  0.19641702  0.97028500  0.83236290     0.00500
C1069       C  0.22174924  0.95999874  0.81457651    -0.22400
C1070       C  0.24188078  0.98187190  0.81829993    -0.22600
C1071       C  0.22826511  0.50493844  0.83834000     0.00400
H1072       H  0.22501772  0.93913861  0.79995215     0.14200
H1073       H  0.26351236  0.98168644  0.80606415     0.14200
N1074       N  0.27139919  0.53679171  0.84810127    -0.02100
C1075       C  0.27655534  0.56731729  0.84744234     0.00500
C1076       C  0.25040163  0.58435490  0.84401824    -0.22400
C1077       C  0.22879643  0.56356271  0.84159006    -0.22600
C1078       C  0.24215709  0.53447310  0.84462278     0.00400
H1079       H  0.24754621  0.60917344  0.84226699     0.14200
H1080       H  0.20622586  0.56907822  0.83658564     0.14200
N1081       N  0.39883273  0.88958335  0.80058379    -0.25900
N1082       N  0.38855060  0.91542613  0.78925160    -0.33800
C1083       C  0.40724477  0.92330106  0.76596823     0.02400
C1084       C  0.43059736  0.90127677  0.76190846     0.08500
C1085       C  0.42471109  0.88038780  0.78456617    -0.04600
H1086       H  0.40531452  0.94494390  0.75465601     0.09100
H1087       H  0.43955376  0.86175867  0.79090734     0.10300
Cu1088     Cu  0.35357456  0.94261585  0.80999599     0.44200
Cu1089     Cu  0.37820979  0.87157011  0.84022077     0.42000
Cu1090     Cu  0.31470589  0.91985213  0.87893781     0.43900
N1091       N  0.32314432  0.97147264  0.83599899    -0.33300
N1092       N  0.30848235  0.96380718  0.86152328    -0.27600
C1093       C  0.28910260  0.98762186  0.87143201    -0.03700
C1094       C  0.29248269  0.01137038  0.85136904     0.08600
C1095       C  0.31370693  0.99995613  0.82888734     0.02400
H1096       H  0.27254890  0.98698839  0.89053090     0.10000
H1097       H  0.31957999  0.00998084  0.80728590     0.09100
N1098       N  0.32847526  0.87572818  0.89206620    -0.34800
N1099       N  0.35201075  0.85906085  0.87917194    -0.26900
C1100       C  0.35550939  0.83299117  0.89460607    -0.02200
C1101       C  0.33311115  0.83308423  0.91805002     0.06400
C1102       C  0.31618228  0.86032395  0.91548594     0.04500
H1103       H  0.37289061  0.81500494  0.88894437     0.09600
H1104       H  0.29660317  0.86861719  0.92988423     0.08500
N1105       N  0.53373382  0.09472688  0.12493999    -0.25900
N1106       N  0.54349714  0.07379342  0.14337208    -0.33800
C1107       C  0.52406204  0.07410019  0.16850863     0.02400
C1108       C  0.50150326  0.09670545  0.16547031     0.08500
C1109       C  0.50839925  0.10903720  0.13756210    -0.04600
H1110       H  0.52711207  0.06048097  0.18821067     0.09100
H1111       H  0.49733005  0.12883904  0.12823994     0.10300
Cu1112     Cu  0.58525196  0.04983293  0.13341561     0.44200
Cu1113     Cu  0.55769687  0.10877066  0.08682135     0.42000
Cu1114     Cu  0.63260167  0.08135491  0.07040688     0.43900
N1115       N  0.62732596  0.03059524  0.11564913    -0.33300
N1116       N  0.64354259  0.04148703  0.09245752    -0.27600
C1117       C  0.66869419  0.02341719  0.08644423    -0.03700
C1118       C  0.66867875  0.00047159  0.10726486     0.08600
C1119       C  0.64214636  0.00544096  0.12527633     0.02400
H1120       H  0.68589592  0.02714080  0.06867888     0.10000
H1121       H  0.63442323  0.99222326  0.14432786     0.09100
N1122       N  0.61539198  0.12174682  0.05336212    -0.34800
N1123       N  0.58715040  0.13099511  0.05871937    -0.26900
C1124       C  0.58244921  0.15878702  0.04704964    -0.02200
C1125       C  0.60899631  0.16739653  0.03363920     0.06400
C1126       C  0.62957252  0.14357927  0.03810975     0.04500
H1127       H  0.56159967  0.17245141  0.04962792     0.09600
H1128       H  0.65316213  0.14274511  0.03192754     0.08500
N1129       N  0.58970443  0.34166802  0.02296017    -0.25900
N1130       N  0.56573774  0.32745346  0.03215843    -0.33800
C1131       C  0.56207041  0.30442891  0.01120783     0.02400
C1132       C  0.58467100  0.30487254  0.98789494     0.08500
C1133       C  0.60173862  0.32853630  0.99619067    -0.04600
H1134       H  0.54502125  0.28807225  0.01329543     0.09100
H1135       H  0.62236534  0.33461137  0.48457289     0.10300
Cu1136     Cu  0.54097776  0.34018536  0.07426753     0.44200
Cu1137     Cu  0.60816577  0.37562567  0.04846598     0.42000
Cu1138     Cu  0.57450720  0.39698268  0.12348004     0.43900
N1139       N  0.52169405  0.35850692  0.11736058    -0.33300
N1140       N  0.53387034  0.37896668  0.13486896    -0.27600
C1141       C  0.51618502  0.38546932  0.16087271    -0.03700
C1142       C  0.49147727  0.36838107  0.15984869     0.08600
C1143       C  0.49585889  0.35146164  0.13197798     0.02400
H1144       H  0.52113954  0.40170069  0.17867731     0.10000
H1145       H  0.98185921  0.33437688  0.12342233     0.09100
N1146       N  0.61511870  0.41200197  0.10693567    -0.34800
N1147       N  0.62726060  0.40436166  0.07905810    -0.26900
C1148       C  0.65402900  0.41603944  0.07549581    -0.02200
C1149       C  0.65882012  0.43208079  0.10228962     0.06400
C1150       C  0.63386319  0.42882467  0.12187525     0.04500
H1151       H  0.66930171  0.41224940  0.05526286     0.09600
H1152       H  0.63011838  0.43687702  0.14558972     0.08500
N1153       N  0.91037682  0.10976048  0.11640751    -0.25900
N1154       N  0.91026864  0.14028207  0.11857309    -0.33800
C1155       C  0.92782434  0.14863466  0.14010821     0.02400
C1156       C  0.93969355  0.12224342  0.15217186     0.08500
C1157       C  0.92808879  0.09790547  0.13673453    -0.04600
H1158       H  0.92968892  0.17226403  0.14835376     0.09100
H1159       H  0.92965310  0.07380434  0.14228799     0.10300
Cu1160     Cu  0.88319159  0.17014337  0.09614257     0.44200
Cu1161     Cu  0.88028297  0.08718109  0.09201106     0.42000
Cu1162     Cu  0.83082193  0.13970804  0.05141402     0.43900
N1163       N  0.86220106  0.19670419  0.06542435    -0.33300
N1164       N  0.84459858  0.18492409  0.04619423    -0.27600
C1165       C  0.84260619  0.20413253  0.02285190    -0.03700
C1166       C  0.85988021  0.22920425  0.02770063     0.08600
C1167       C  0.87128839  0.22367595  0.05541509     0.02400
H1168       H  0.83312246  0.19803310  0.50179528     0.10000
H1169       H  0.88912860  0.23546026  0.06470170     0.09100
N1170       N  0.82078056  0.09559282  0.06639064    -0.34800
N1171       N  0.83905981  0.07629186  0.07945869    -0.26900
C1172       C  0.82418330  0.05230145  0.08986067    -0.02200
C1173       C  0.79503965  0.05666537  0.08340156     0.06400
C1174       C  0.79374953  0.08433684  0.06858039     0.04500
H1175       H  0.83311906  0.03512885  0.10431357     0.09600
H1176       H  0.77398939  0.09666059  0.06209881     0.08500
N1177       N  0.59776092  0.15602702  0.42594639    -0.25900
N1178       N  0.62055861  0.14017410  0.43606281    -0.33800
C1179       C  0.62853943  0.15516912  0.46122902     0.02400
C1180       C  0.60995045  0.18156679  0.46716143     0.08500
C1181       C  0.59041065  0.18126639  0.44467452    -0.04600
H1182       H  0.64685464  0.14765726  0.47389357     0.09100
H1183       H  0.57254713  0.19825282  0.44180706     0.10300
Cu1184     Cu  0.64037399  0.09836204  0.41615531     0.44200
Cu1185     Cu  0.57793334  0.14366023  0.38654137     0.42000
Cu1186     Cu  0.59316171  0.06369366  0.36648751     0.43900
N1187       N  0.65248191  0.05650684  0.39140981    -0.33300
N1188       N  0.63380129  0.04378547  0.37391418    -0.27600
C1189       C  0.64772933  0.02014722  0.35682800    -0.03700
C1190       C  0.67673065  0.01732324  0.36395785     0.08600
C1191       C  0.67908020  0.04060669  0.38627553     0.02400
H1192       H  0.63807310  0.00807343  0.33846103     0.10000
H1193       H  0.69889469  0.04679516  0.39647839     0.09100
N1194       N  0.56717722  0.09204929  0.34221947    -0.34800
N1195       N  0.56291557  0.12221572  0.34803253    -0.26900
C1196       C  0.55040573  0.13489468  0.32437172    -0.02200
C1197       C  0.54666973  0.11132450  0.30303801     0.06400
C1198       C  0.55755860  0.08459879  0.31499350     0.04500
H1199       H  0.54560788  0.15943056  0.32227867     0.09600
H1200       H  0.56013432  0.06173060  0.30386211     0.08500
N1201       N  0.69136685  0.47616171  0.10975454    -0.02100
C1202       C  0.68658929  0.44559320  0.10942316     0.00500
C1203       C  0.71281291  0.42828548  0.11091353    -0.22400
C1204       C  0.73460701  0.44891545  0.11245121    -0.22600
C1205       C  0.72117706  0.47835075  0.11103170     0.00400
H1206       H  0.71590162  0.40329736  0.11016479     0.14200
H1207       H  0.75767564  0.44257861  0.11431076     0.14200
N1208       N  0.76571033  0.01049620  0.09797344    -0.02100
C1209       C  0.76922422  0.04141790  0.09730790     0.00500
C1210       C  0.74395038  0.05786059  0.11002705    -0.22400
C1211       C  0.72413481  0.03653486  0.11873610    -0.22600
C1212       C  0.73727984  0.00752745  0.10990787     0.00400
H1213       H  0.74032998  0.08276819  0.11283637     0.14200
H1214       H  0.70238605  0.04200757  0.13022215     0.14200
N1215       N  0.82497904  0.45083519  0.09618130    -0.25900
N1216       N  0.81487885  0.44517626  0.06916482    -0.33800
C1217       C  0.79261131  0.46633425  0.06513550     0.02400
C1218       C  0.78876698  0.48631090  0.09072639     0.08500
C1219       C  0.80941393  0.47581067  0.11001050    -0.04600
H1220       H  0.77968874  0.46655100  0.04555007     0.09100
H1221       H  0.81227270  0.48505076  0.13275001     0.10300
Cu1222     Cu  0.83079172  0.40753995  0.03970785     0.44200
Cu1223     Cu  0.85861437  0.42309460  0.11398797     0.42000
Cu1224     Cu  0.88514951  0.35394121  0.06813621     0.43900
N1225       N  0.84847913  0.36695150  0.01568616    -0.33300
N1226       N  0.86832404  0.34747311  0.02610590    -0.27600
C1227       C  0.87286378  0.32223580  0.00693727    -0.03700
C1228       C  0.85496818  0.32578326  0.48312384     0.08600
C1229       C  0.83978558  0.35448448  0.98961880     0.02400
H1230       H  0.88715351  0.30249298  0.01110937     0.10000
H1231       H  0.82168123  0.36429930  0.47800291     0.09100
N1232       N  0.89993271  0.36499526  0.11033430    -0.34800
N1233       N  0.89126144  0.39066559  0.12685355    -0.26900
C1234       C  0.90575510  0.39089051  0.15246093    -0.02200
C1235       C  0.92426503  0.36414471  0.15189352     0.06400
C1236       C  0.91960722  0.34810363  0.12509482     0.04500
H1237       H  0.90245437  0.40872381  0.17061865     0.09600
H1238       H  0.92953357  0.32563624  0.11698787     0.08500
N1239       N  0.61129354  0.20440541  0.49181497    -0.02100
C1240       C  0.61417393  0.19762976  0.02119294     0.00500
C1241       C  0.61516693  0.22431105  0.03916842    -0.22400
C1242       C  0.61318169  0.24855550  0.02003591    -0.22600
C1243       C  0.61023126  0.23587980  0.49103706     0.00400
H1244       H  0.61618247  0.22603106  0.06369366     0.14200
H1245       H  0.61395723  0.27265967  0.02695998     0.14200
N1246       N  0.59242438  0.28265959  0.46271740    -0.02100
C1247       C  0.59299132  0.28901443  0.43271823     0.00500
C1248       C  0.60758879  0.26515559  0.41467715    -0.22400
C1249       C  0.61674864  0.24336717  0.43413601    -0.22600
C1250       C  0.60647955  0.25400867  0.46347733     0.00400
H1251       H  0.61195230  0.26418513  0.39005233     0.14200
H1252       H  0.63010470  0.22234760  0.42735718     0.14200
N1253       N  0.58555678  0.36063522  0.39533382    -0.25900
N1254       N  0.56780138  0.34369058  0.38024061    -0.33800
C1255       C  0.56437364  0.31719640  0.39456732     0.02400
C1256       C  0.58066486  0.31729599  0.41985475     0.08500
C1257       C  0.59381675  0.34526707  0.41954220    -0.04600
H1258       H  0.55415976  0.29750180  0.38496470     0.09100
H1259       H  0.61155066  0.35181364  0.43294953     0.10300
Cu1260     Cu  0.55604601  0.35209191  0.33630601     0.44200
Cu1261     Cu  0.60600001  0.39807344  0.37732593     0.42000
Cu1262     Cu  0.60638016  0.39817193  0.29476640     0.43900
N1263       N  0.55165917  0.36277694  0.29095606    -0.33300
N1264       N  0.57080739  0.37918697  0.27543339    -0.27600
C1265       C  0.55937307  0.38775687  0.24956830    -0.03700
C1266       C  0.53136009  0.37667084  0.24867475     0.08600
C1267       C  0.52758810  0.36048185  0.27524846     0.02400
H1268       H  0.56851612  0.40509084  0.23515397     0.10000
H1269       H  0.00697341  0.35218058  0.28483971     0.09100
N1270       N  0.63453883  0.42304036  0.32014604    -0.34800
N1271       N  0.63301892  0.42473504  0.35037215    -0.26900
C1272       C  0.65387821  0.44302320  0.35953052    -0.02200
C1273       C  0.66933150  0.45312995  0.33380759     0.06400
C1274       C  0.65668140  0.43985522  0.30928743     0.04500
H1275       H  0.65853443  0.44718598  0.38304703     0.09600
H1276       H  0.66338463  0.44190797  0.28528797     0.08500
N1277       N  0.97877219  0.10960493  0.18823256    -0.02100
C1278       C  0.95168951  0.12163717  0.18216887     0.00500
C1279       C  0.93735980  0.13734754  0.20753474    -0.22400
C1280       C  0.95614324  0.13534499  0.23016273    -0.22600
C1281       C  0.98137137  0.11801065  0.21813711     0.00400
H1282       H  0.91617298  0.15036907  0.20890805     0.14200
H1283       H  0.95237318  0.14756854  0.25218325     0.14200
N1284       N  0.00825856  0.11216639  0.26576935    -0.02100
C1285       C  0.53660564  0.11386319  0.27236057     0.00500
C1286       C  0.55493993  0.11658346  0.24616627    -0.22400
C1287       C  0.53690312  0.11745532  0.22246701    -0.22600
C1288       C  0.00826054  0.11417895  0.23497027     0.00400
H1289       H  0.57861727  0.11872044  0.24457918     0.14200
H1290       H  0.54395329  0.12201853  0.19908040     0.14200
N1291       N  0.87483595  0.19552903  0.39112135    -0.25900
N1292       N  0.90264121  0.20066070  0.38316733    -0.33800
C1293       C  0.91125000  0.22287498  0.40223910     0.02400
C1294       C  0.88768431  0.23198256  0.42357479     0.08500
C1295       C  0.86515829  0.21382038  0.41564771    -0.04600
H1296       H  0.93392767  0.22898070  0.40297151     0.09100
H1297       H  0.84513193  0.21006219  0.42940309     0.10300
Cu1298     Cu  0.92841301  0.17056064  0.35284815     0.44200
Cu1299     Cu  0.85377943  0.15828984  0.37422935     0.42000
Cu1300     Cu  0.89539031  0.09976212  0.32451696     0.43900
N1301       N  0.94994619  0.13704583  0.32278046    -0.33300
N1302       N  0.93850082  0.11199028  0.31152498    -0.27600
C1303       C  0.95840980  0.09785407  0.29003387    -0.03700
C1304       C  0.98334493  0.11485964  0.28835571     0.08600
C1305       C  0.97722114  0.13936564  0.30928392     0.02400
H1306       H  0.95450693  0.07774911  0.27584920     0.10000
H1307       H  0.99066023  0.15875109  0.31285833     0.09100
N1308       N  0.85125905  0.09602465  0.34156512    -0.34800
N1309       N  0.83624621  0.11796181  0.35925597    -0.26900
C1310       C  0.80820839  0.11014420  0.36489388    -0.02200
C1311       C  0.80514903  0.08165738  0.35047401     0.06400
C1312       C  0.83296830  0.07351589  0.33564083     0.04500
H1313       H  0.79097862  0.12462137  0.37791825     0.09600
H1314       H  0.83922436  0.05398633  0.32002646     0.08500
N1315       N  0.86602693  0.25057688  0.47549331    -0.02100
C1316       C  0.88982851  0.24584388  0.45461955     0.00500
C1317       C  0.91543714  0.24168100  0.46914766    -0.22400
C1318       C  0.90688448  0.24142216  0.49975304    -0.22600
C1319       C  0.87621566  0.24542135  0.50311972     0.00400
H1320       H  0.93728716  0.23447677  0.45865398     0.14200
H1321       H  0.92119322  0.23385030  0.01684221     0.14200
N1322       N  0.84613735  0.30183533  0.46237644    -0.02100
C1323       C  0.82818877  0.30842008  0.44002576     0.00500
C1324       C  0.81030131  0.28441107  0.43538134    -0.22400
C1325       C  0.81811913  0.26194362  0.45507022    -0.22600
C1326       C  0.84156758  0.27216056  0.47016889     0.00400
H1327       H  0.79499933  0.28231745  0.41792238     0.14200
H1328       H  0.80983096  0.23909927  0.45556550     0.14200
N1329       N  0.96768669  0.36526157  0.18352183    -0.02100
C1330       C  0.94192711  0.35341530  0.17669035     0.00500
C1331       C  0.93067279  0.33652156  0.20022222    -0.22400
C1332       C  0.94977642  0.33874802  0.22278070    -0.22600
C1333       C  0.97139111  0.35841514  0.21321244     0.00400
H1334       H  0.90957195  0.32610696  0.20198144     0.14200
H1335       H  0.94552031  0.33088525  0.24562674     0.14200
N1336       N  0.97943604  0.38171347  0.23516673    -0.02100
C1337       C  0.95965306  0.40538304  0.24523143     0.00500
C1338       C  0.97349833  0.43267054  0.24778507    -0.22400
C1339       C  0.00311335  0.42517025  0.24109291    -0.22600
C1340       C  0.50650151  0.39333598  0.23529781     0.00400
H1341       H  0.96381812  0.45461489  0.25771670     0.14200
H1342       H  0.52040212  0.44035126  0.24590640     0.14200
N1343       N  0.70002374  0.99793823  0.34700674    -0.02100
C1344       C  0.69641417  0.47028604  0.33236406     0.00500
C1345       C  0.72174544  0.46000154  0.31457546    -0.22400
C1346       C  0.74187671  0.48187484  0.31829912    -0.22600
C1347       C  0.72827126  0.00493941  0.33833137     0.00400
H1348       H  0.72501362  0.43914243  0.29994952     0.14200
H1349       H  0.76350729  0.48169050  0.30606245     0.14200
N1350       N  0.77140286  0.03679577  0.34809221    -0.02100
C1351       C  0.77655772  0.06732157  0.34743075     0.00500
C1352       C  0.75040328  0.08435747  0.34400546    -0.22400
C1353       C  0.72879911  0.06356388  0.34157896    -0.22600
C1354       C  0.74216110  0.03447529  0.34461377     0.00400
H1355       H  0.74754669  0.10917563  0.34225198     0.14200
H1356       H  0.70622831  0.06907761  0.33657435     0.14200
N1357       N  0.89883537  0.38958648  0.30058316    -0.25900
N1358       N  0.88855227  0.41542812  0.28924927    -0.33800
C1359       C  0.90724658  0.42330277  0.26596587     0.02400
C1360       C  0.93059996  0.40127929  0.26190802     0.08500
C1361       C  0.92471419  0.38039129  0.28456666    -0.04600
H1362       H  0.90531562  0.44494506  0.25465198     0.09100
H1363       H  0.93955712  0.36176265  0.29090864     0.10300
Cu1364     Cu  0.85357323  0.44261583  0.30999065     0.44200
Cu1365     Cu  0.87821411  0.37157331  0.34022066     0.42000
Cu1366     Cu  0.81470886  0.41985065  0.37893564     0.43900
N1367       N  0.82314170  0.47147068  0.33599448    -0.33300
N1368       N  0.80848207  0.46380474  0.36152010    -0.27600
C1369       C  0.78910264  0.48761891  0.37143090    -0.03700
C1370       C  0.79248069  0.51136758  0.35136788     0.08600
C1371       C  0.81370312  0.49995410  0.32888400     0.02400
H1372       H  0.77255125  0.48698542  0.39053180     0.10000
H1373       H  0.81957493  0.50998003  0.30728224     0.09100
N1374       N  0.82847978  0.37572754  0.39206470    -0.34800
N1375       N  0.85201632  0.35906173  0.37917119    -0.26900
C1376       C  0.85551551  0.33299157  0.39460457    -0.02200
C1377       C  0.83311642  0.33308276  0.41804735     0.06400
C1378       C  0.81618654  0.36032185  0.41548330     0.04500
H1379       H  0.87289731  0.31500614  0.38894272     0.09600
H1380       H  0.79660654  0.36861317  0.42988028     0.08500
N1381       N  0.53373570  0.09472755  0.62493614    -0.25900
N1382       N  0.54349796  0.07379362  0.64336829    -0.33800
C1383       C  0.52406193  0.07410044  0.66850410     0.02400
C1384       C  0.50150367  0.09670620  0.66546545     0.08500
C1385       C  0.50840087  0.10903805  0.63755758    -0.04600
H1386       H  0.52711098  0.06048089  0.68820585     0.09100
H1387       H  0.49733249  0.12884053  0.62823543     0.10300
Cu1388     Cu  0.58525321  0.04983290  0.63341455     0.44200
Cu1389     Cu  0.55770054  0.10877150  0.58681843     0.42000
Cu1390     Cu  0.63260632  0.08135583  0.57041047     0.43900
N1391       N  0.62732797  0.03059491  0.61565080    -0.33300
N1392       N  0.64354545  0.04148671  0.59245987    -0.27600
C1393       C  0.66869697  0.02341668  0.58644720    -0.03700
C1394       C  0.66868053  0.00047083  0.60726766     0.08600
C1395       C  0.64214776  0.00544049  0.62527844     0.02400
H1396       H  0.68589900  0.02714028  0.56868256     0.10000
H1397       H  0.63442385  0.99222304  0.64433000     0.09100
N1398       N  0.61539865  0.12174776  0.55336458    -0.34800
N1399       N  0.58715665  0.13099568  0.55871854    -0.26900
C1400       C  0.58245658  0.15878705  0.54704728    -0.02200
C1401       C  0.60900493  0.16739668  0.53363977     0.06400
C1402       C  0.62958053  0.14357993  0.53811324     0.04500
H1403       H  0.56160687  0.17245100  0.54962253     0.09600
H1404       H  0.65317076  0.14274540  0.53193261     0.08500
N1405       N  0.58970618  0.34166390  0.52296321    -0.25900
N1406       N  0.56573953  0.32744900  0.53216105    -0.33800
C1407       C  0.56207230  0.30442496  0.51120987     0.02400
C1408       C  0.58467268  0.30486949  0.48789687     0.08500
C1409       C  0.60174030  0.32853302  0.49619332    -0.04600
H1410       H  0.54502247  0.28806822  0.51329672     0.09100
H1411       H  0.62236414  0.33461409  0.98457020     0.10300
Cu1412     Cu  0.54097861  0.34018197  0.57426956     0.44200
Cu1413     Cu  0.60816741  0.37562097  0.54846971     0.42000
Cu1414     Cu  0.57450418  0.39698375  0.62348088     0.43900
N1415       N  0.52169276  0.35850547  0.61736139    -0.33300
N1416       N  0.53386760  0.37896680  0.63486936    -0.27600
C1417       C  0.51618179  0.38546939  0.66087282    -0.03700
C1418       C  0.49147514  0.36837937  0.65984915     0.08600
C1419       C  0.49585795  0.35145913  0.63197878     0.02400
H1420       H  0.52113582  0.40170117  0.67867764     0.10000
H1421       H  0.98185954  0.33437301  0.62342348     0.09100
N1422       N  0.61511788  0.41199960  0.60693845    -0.34800
N1423       N  0.62726159  0.40435683  0.57906213    -0.26900
C1424       C  0.65403091  0.41603271  0.57550106    -0.02200
C1425       C  0.65882095  0.43207533  0.60229443     0.06400
C1426       C  0.63386223  0.42882204  0.62187858     0.04500
H1427       H  0.66930492  0.41224041  0.55526917     0.09600
H1428       H  0.63011601  0.43687607  0.64559211     0.08500
N1429       N  0.91037606  0.10976554  0.61640343    -0.25900
N1430       N  0.91026477  0.14028728  0.61857191    -0.33800
C1431       C  0.92782151  0.14863962  0.64010620     0.02400
C1432       C  0.93969462  0.12224816  0.65216641     0.08500
C1433       C  0.92809120  0.09791030  0.63672755    -0.04600
H1434       H  0.92968365  0.17226862  0.64835429     0.09100
H1435       H  0.92965813  0.07380861  0.64227875     0.10300
Cu1436     Cu  0.88318226  0.17014881  0.59614711     0.44200
Cu1437     Cu  0.88028253  0.08718435  0.59200791     0.42000
Cu1438     Cu  0.83081896  0.13970907  0.55141337     0.43900
N1439       N  0.86218955  0.19670934  0.56542996    -0.33300
N1440       N  0.84459036  0.18492735  0.54619760    -0.27600
C1441       C  0.84259888  0.20413535  0.52285482    -0.03700
C1442       C  0.85987031  0.22920867  0.52770521     0.08600
C1443       C  0.87127528  0.22368212  0.55542165     0.02400
H1444       H  0.83312597  0.19803190  0.00179380     0.10000
H1445       H  0.88911415  0.23546763  0.56470961     0.09100
N1446       N  0.82078039  0.09559232  0.56638687    -0.34800
N1447       N  0.83906029  0.07629209  0.57945490    -0.26900
C1448       C  0.82418463  0.05230083  0.58985635    -0.02200
C1449       C  0.79504087  0.05666348  0.58339691     0.06400
C1450       C  0.79375001  0.08433495  0.56857585     0.04500
H1451       H  0.83312083  0.03512868  0.60430955     0.09600
H1452       H  0.77398943  0.09665840  0.56209483     0.08500
N1453       N  0.59775906  0.15602973  0.92594452    -0.25900
N1454       N  0.62055603  0.14017639  0.93606195    -0.33800
C1455       C  0.62853587  0.15517099  0.96122884     0.02400
C1456       C  0.60994689  0.18156877  0.96716085     0.08500
C1457       C  0.59040832  0.18126900  0.94467269    -0.04600
H1458       H  0.64685051  0.14765875  0.97389405     0.09100
H1459       H  0.57254498  0.19825558  0.94180472     0.10300
Cu1460     Cu  0.64037157  0.09836390  0.91615574     0.44200
Cu1461     Cu  0.57793203  0.14366308  0.88653865     0.42000
Cu1462     Cu  0.59316133  0.06369651  0.86648573     0.43900
N1463       N  0.65248011  0.05650883  0.89141027    -0.33300
N1464       N  0.63380045  0.04378797  0.87391320    -0.27600
C1465       C  0.64772901  0.02014977  0.85682735    -0.03700
C1466       C  0.67672968  0.01732527  0.86395894     0.08600
C1467       C  0.67907835  0.04060836  0.88627730     0.02400
H1468       H  0.63807370  0.00807627  0.83845929     0.10000
H1469       H  0.69889192  0.04679613  0.89648152     0.09100
N1470       N  0.56717551  0.09205100  0.84221819    -0.34800
N1471       N  0.56291355  0.12221743  0.84803042    -0.26900
C1472       C  0.55040290  0.13489532  0.82436943    -0.02200
C1473       C  0.54666664  0.11132429  0.80303659     0.06400
C1474       C  0.55755626  0.08459935  0.81499278     0.04500
H1475       H  0.54560534  0.15943082  0.82227540     0.09600
H1476       H  0.56013223  0.06173110  0.80386217     0.08500
N1477       N  0.69136719  0.47615688  0.60975915    -0.02100
C1478       C  0.68658971  0.44558840  0.60942872     0.00500
C1479       C  0.71281355  0.42828103  0.61091946    -0.22400
C1480       C  0.73460763  0.44891116  0.61245649    -0.22600
C1481       C  0.72117747  0.47834612  0.61103604     0.00400
H1482       H  0.71590241  0.40329333  0.61017133     0.14200
H1483       H  0.75767648  0.44257453  0.61431546     0.14200
N1484       N  0.76571173  0.01049480  0.59797090    -0.02100
C1485       C  0.76922573  0.04141644  0.59730443     0.00500
C1486       C  0.74395277  0.05785969  0.61002519    -0.22400
C1487       C  0.72413778  0.03653419  0.61873640    -0.22600
C1488       C  0.73728203  0.00752657  0.60990779     0.00400
H1489       H  0.74033256  0.08276742  0.61283416     0.14200
H1490       H  0.70238987  0.04200692  0.63022429     0.14200
N1491       N  0.82497960  0.45083175  0.59618307    -0.25900
N1492       N  0.81487869  0.44517279  0.56916698    -0.33800
C1493       C  0.79261076  0.46633061  0.56513823     0.02400
C1494       C  0.78876692  0.48630718  0.59072913     0.08500
C1495       C  0.80941452  0.47580708  0.61001269    -0.04600
H1496       H  0.77968761  0.46654748  0.54555332     0.09100
H1497       H  0.81227334  0.48504675  0.63275231     0.10300
Cu1498     Cu  0.83079191  0.40753679  0.53970997     0.44200
Cu1499     Cu  0.85861535  0.42309064  0.61398835     0.42000
Cu1500     Cu  0.88515037  0.35393648  0.56813664     0.43900
N1501       N  0.84848059  0.36694956  0.51568731    -0.33300
N1502       N  0.86832604  0.34747110  0.52610581    -0.27600
C1503       C  0.87286648  0.32223488  0.50693584    -0.03700
C1504       C  0.85496581  0.32578348  0.98312474     0.08600
C1505       C  0.83978723  0.35448361  0.48961938     0.02400
H1506       H  0.88715739  0.30249237  0.51110656     0.10000
H1507       H  0.82167962  0.36430049  0.97800126     0.09100
N1508       N  0.89993173  0.36498967  0.61033541    -0.34800
N1509       N  0.89126094  0.39066026  0.62685427    -0.26900
C1510       C  0.90575443  0.39088502  0.65246177    -0.02200
C1511       C  0.92426329  0.36413857  0.65189498     0.06400
C1512       C  0.91960537  0.34809735  0.62509645     0.04500
H1513       H  0.90245447  0.40871865  0.67061885     0.09600
H1514       H  0.92953187  0.32563042  0.61698938     0.08500
N1515       N  0.61128834  0.20440668  0.99181541    -0.02100
C1516       C  0.61418317  0.19762909  0.52119199     0.00500
C1517       C  0.61517972  0.22431063  0.53916623    -0.22400
C1518       C  0.61319198  0.24855463  0.52003343    -0.22600
C1519       C  0.61022560  0.23588118  0.99103844     0.00400
H1520       H  0.61619821  0.22603114  0.56369125     0.14200
H1521       H  0.61396874  0.27265887  0.52695644     0.14200
N1522       N  0.59242291  0.28266107  0.96271682    -0.02100
C1523       C  0.59299269  0.28901523  0.93271748     0.00500
C1524       C  0.60759230  0.26515640  0.91467796    -0.22400
C1525       C  0.61675060  0.24336850  0.93413796    -0.22600
C1526       C  0.60647830  0.25401031  0.96347830     0.00400
H1527       H  0.61195751  0.26418553  0.89005362     0.14200
H1528       H  0.63010742  0.22234858  0.92736031     0.14200
N1529       N  0.58555136  0.36063500  0.89533167    -0.25900
N1530       N  0.56779910  0.34368736  0.88023739    -0.33800
C1531       C  0.56437431  0.31719264  0.89456387     0.02400
C1532       C  0.58066437  0.31729495  0.91985217     0.08500
C1533       C  0.59381242  0.34526811  0.91954033    -0.04600
H1534       H  0.55416357  0.29749639  0.88496059     0.09100
H1535       H  0.61154465  0.35181770  0.93294896     0.10300
Cu1536     Cu  0.55604424  0.35208597  0.83630226     0.44200
Cu1537     Cu  0.60599025  0.39807616  0.87732514     0.42000
Cu1538     Cu  0.60637589  0.39817122  0.79476603     0.43900
N1539       N  0.55165856  0.36277126  0.79095239    -0.33300
N1540       N  0.57080591  0.37918317  0.77543088    -0.27600
C1541       C  0.55937107  0.38775436  0.74956651    -0.03700
C1542       C  0.53135864  0.37666731  0.74867227     0.08600
C1543       C  0.52758766  0.36047591  0.77524464     0.02400
H1544       H  0.56851301  0.40509028  0.73515357     0.10000
H1545       H  0.00697291  0.35217412  0.78483583     0.09100
N1546       N  0.63453171  0.42304233  0.82014668    -0.34800
N1547       N  0.63300974  0.42473830  0.85037286    -0.26900
C1548       C  0.65386886  0.44302614  0.85953207    -0.02200
C1549       C  0.66932426  0.45313143  0.83380973     0.06400
C1550       C  0.65667535  0.43985623  0.80928893     0.04500
H1551       H  0.65852428  0.44718890  0.88304913     0.09600
H1552       H  0.66338072  0.44190711  0.78528975     0.08500
N1553       N  0.97877247  0.10960626  0.68822758    -0.02100
C1554       C  0.95169055  0.12164028  0.68216350     0.00500
C1555       C  0.93736065  0.13734964  0.70752977    -0.22400
C1556       C  0.95614294  0.13534477  0.73015841    -0.22600
C1557       C  0.98137087  0.11801006  0.71813292     0.00400
H1558       H  0.91617424  0.15037165  0.70890304     0.14200
H1559       H  0.95237221  0.14756776  0.75217941     0.14200
N1560       N  0.00825670  0.11216508  0.76576631    -0.02100
C1561       C  0.53660328  0.11386159  0.77235847     0.00500
C1562       C  0.55493838  0.11658050  0.74616451    -0.22400
C1563       C  0.53690237  0.11745214  0.72246452    -0.22600
C1564       C  0.00825957  0.11417695  0.73496696     0.00400
H1565       H  0.57861552  0.11871673  0.74457813     0.14200
H1566       H  0.54395356  0.12201524  0.69907802     0.14200
N1567       N  0.87483364  0.19553751  0.89111332    -0.25900
N1568       N  0.90263882  0.20066913  0.88315847    -0.33800
C1569       C  0.91124875  0.22288221  0.90223080     0.02400
C1570       C  0.88768404  0.23198884  0.92356805     0.08500
C1571       C  0.86515722  0.21382765  0.91564081    -0.04600
H1572       H  0.93392707  0.22898698  0.90296277     0.09100
H1573       H  0.84513155  0.21006848  0.92939681     0.10300
Cu1574     Cu  0.92840963  0.17056845  0.85283883     0.44200
Cu1575     Cu  0.85377645  0.15829809  0.87422263     0.42000
Cu1576     Cu  0.89538829  0.09976595  0.82451652     0.43900
N1577       N  0.94994317  0.13705079  0.82277434    -0.33300
N1578       N  0.93849820  0.11199373  0.81152185    -0.27600
C1579       C  0.95840743  0.09785521  0.79003235    -0.03700
C1580       C  0.98334253  0.11486075  0.78835217     0.08600
C1581       C  0.97721826  0.13936937  0.80927743     0.02400
H1582       H  0.95450489  0.07774808  0.77585044     0.10000
H1583       H  0.99065712  0.15875489  0.81284967     0.09100
N1584       N  0.85125747  0.09602885  0.84156627    -0.34800
N1585       N  0.83624403  0.11796760  0.85925448    -0.26900
C1586       C  0.80820658  0.11014928  0.86489374    -0.02200
C1587       C  0.80514806  0.08166047  0.85047743     0.06400
C1588       C  0.83296748  0.07351849  0.83564497     0.04500
H1589       H  0.79097632  0.12462728  0.87791643     0.09600
H1590       H  0.83922415  0.05398758  0.82003290     0.08500
N1591       N  0.86603000  0.25057665  0.97549008    -0.02100
C1592       C  0.88982995  0.24584773  0.95461361     0.00500
C1593       C  0.91544048  0.24168610  0.96913867    -0.22400
C1594       C  0.90689090  0.24142373  0.99974455    -0.22600
C1595       C  0.87622202  0.24541957  0.00311460     0.00400
H1596       H  0.93729029  0.23448483  0.95864256     0.14200
H1597       H  0.92118439  0.23384837  0.51685303     0.14200
N1598       N  0.84613558  0.30183456  0.96237794    -0.02100
C1599       C  0.82818474  0.30841794  0.94002889     0.00500
C1600       C  0.81029764  0.28440807  0.93538696    -0.22400
C1601       C  0.81811821  0.26194143  0.95507551    -0.22600
C1602       C  0.84156831  0.27215939  0.97017076     0.00400
H1603       H  0.79499463  0.28231295  0.91792924     0.14200
H1604       H  0.80983144  0.23909650  0.95557179     0.14200
N1605       N  0.96768496  0.36525839  0.68352244    -0.02100
C1606       C  0.94192634  0.35340998  0.67669121     0.00500
C1607       C  0.93067340  0.33651546  0.70022310    -0.22400
C1608       C  0.94977699  0.33874373  0.72278145    -0.22600
C1609       C  0.97138994  0.35841265  0.71321301     0.00400
H1610       H  0.90957327  0.32609937  0.70198250     0.14200
H1611       H  0.94552187  0.33088082  0.74562748     0.14200
N1612       N  0.97943390  0.38171174  0.73516687    -0.02100
C1613       C  0.95965025  0.40537988  0.74523397     0.00500
C1614       C  0.97349499  0.43266727  0.74779174    -0.22400
C1615       C  0.00311019  0.42516817  0.74109903    -0.22600
C1616       C  0.50649905  0.39333463  0.73529936     0.00400
H1617       H  0.96381422  0.45461037  0.75772622     0.14200
H1618       H  0.52039889  0.44034913  0.74591451     0.14200
N1619       N  0.70002347  0.99793990  0.84700934    -0.02100
C1620       C  0.69640854  0.47028509  0.83236734     0.00500
C1621       C  0.72174051  0.45999720  0.81458151    -0.22400
C1622       C  0.74187333  0.48186893  0.81830479    -0.22600
C1623       C  0.72827159  0.00494042  0.83833555     0.00400
H1624       H  0.72500798  0.43913688  0.79995774     0.14200
H1625       H  0.76350513  0.48168192  0.80606916     0.14200
N1626       N  0.77140272  0.03679764  0.84809703    -0.02100
C1627       C  0.77655706  0.06732368  0.84743507     0.00500
C1628       C  0.75040249  0.08435899  0.84400907    -0.22400
C1629       C  0.72879875  0.06356490  0.84158261    -0.22600
C1630       C  0.74216116  0.03447657  0.84461785     0.00400
H1631       H  0.74754547  0.10917733  0.84225504     0.14200
H1632       H  0.70622826  0.06907777  0.83657705     0.14200
N1633       N  0.89883132  0.38958009  0.80058274    -0.25900
N1634       N  0.88854836  0.41542199  0.78924936    -0.33800
C1635       C  0.90724311  0.42329721  0.76596655     0.02400
C1636       C  0.93059665  0.40127396  0.76190852     0.08500
C1637       C  0.92471050  0.38038554  0.78456649    -0.04600
H1638       H  0.90531250  0.44493949  0.75465355     0.09100
H1639       H  0.93955401  0.36175727  0.79090880     0.10300
Cu1640     Cu  0.85357043  0.44261080  0.80999170     0.44200
Cu1641     Cu  0.87820927  0.37156632  0.84021963     0.42000
Cu1642     Cu  0.81470359  0.41984439  0.87893392     0.43900
N1643       N  0.82313976  0.47146618  0.83599613    -0.33300
N1644       N  0.80847881  0.46379938  0.86152061    -0.27600
C1645       C  0.78909930  0.48761342  0.87143146    -0.03700
C1646       C  0.79247861  0.51136294  0.85136971     0.08600
C1647       C  0.81370203  0.49995019  0.82888654     0.02400
H1648       H  0.77254706  0.48697935  0.89053153     0.10000
H1649       H  0.81957470  0.50997685  0.80728555     0.09100
N1650       N  0.82847427  0.37572163  0.89206323    -0.34800
N1651       N  0.85201080  0.35905550  0.87917019    -0.26900
C1652       C  0.85551027  0.33298637  0.89460511    -0.02200
C1653       C  0.83311122  0.33307864  0.91804812     0.06400
C1654       C  0.81618108  0.36031716  0.91548275     0.04500
H1655       H  0.87289238  0.31500113  0.88894463     0.09600
H1656       H  0.79660161  0.36860944  0.92987999     0.08500
N1657       N  0.53372616  0.59472633  0.12493904    -0.25900
N1658       N  0.54349032  0.57379333  0.14337118    -0.33800
C1659       C  0.52405619  0.57410106  0.16850862     0.02400
C1660       C  0.50149719  0.59670634  0.16547093     0.08500
C1661       C  0.50839212  0.60903712  0.13756206    -0.04600
H1662       H  0.52710682  0.56048213  0.18821075     0.09100
H1663       H  0.49732259  0.62883880  0.12823989     0.10300
Cu1664     Cu  0.58524538  0.54983264  0.13341410     0.44200
Cu1665     Cu  0.55768792  0.60876976  0.08681933     0.42000
Cu1666     Cu  0.63259372  0.58135620  0.07040669     0.43900
N1667       N  0.62732074  0.53059659  0.11564881    -0.33300
N1668       N  0.64353693  0.54148936  0.09245743    -0.27600
C1669       C  0.66868954  0.52342122  0.08644428    -0.03700
C1670       C  0.66867513  0.50047528  0.10726452     0.08600
C1671       C  0.64214230  0.50544292  0.12527583     0.02400
H1672       H  0.68589067  0.52714562  0.06867865     0.10000
H1673       H  0.63441923  0.49222401  0.14432665     0.09100
N1674       N  0.61538413  0.62174828  0.05336320    -0.34800
N1675       N  0.58714233  0.63099611  0.05871973    -0.26900
C1676       C  0.58244142  0.65878864  0.04705119    -0.02200
C1677       C  0.60898916  0.66739891  0.03364261     0.06400
C1678       C  0.62956518  0.64358151  0.03811281     0.04500
H1679       H  0.56159172  0.67245250  0.04962882     0.09600
H1680       H  0.65315525  0.64274713  0.03193089     0.08500
N1681       N  0.58970642  0.84166763  0.02296199    -0.25900
N1682       N  0.56573774  0.82745590  0.03215921    -0.33800
C1683       C  0.56206819  0.80443269  0.01120799     0.02400
C1684       C  0.58466951  0.80487435  0.98789568     0.08500
C1685       C  0.60173980  0.82853546  0.99619240    -0.04600
H1686       H  0.54501701  0.78807827  0.01329479     0.09100
H1687       H  0.62237356  0.83460997  0.48457513     0.10300
Cu1688     Cu  0.54097801  0.84018913  0.07426795     0.44200
Cu1689     Cu  0.60817081  0.87562156  0.04846949     0.42000
Cu1690     Cu  0.57450947  0.89698191  0.12348283     0.43900
N1691       N  0.52169438  0.85850975  0.11736118    -0.33300
N1692       N  0.53387134  0.87896765  0.13487105    -0.27600
C1693       C  0.51618630  0.88546862  0.16087535    -0.03700
C1694       C  0.49147785  0.86838136  0.15984989     0.08600
C1695       C  0.49585904  0.85146412  0.13197783     0.02400
H1696       H  0.52114183  0.90169773  0.17868174     0.10000
H1697       H  0.98185897  0.83438009  0.12342067     0.09100
N1698       N  0.61512266  0.91199857  0.10693905    -0.34800
N1699       N  0.62726571  0.90435656  0.07906222    -0.26900
C1700       C  0.65403446  0.91603354  0.07550035    -0.02200
C1701       C  0.65882475  0.93207629  0.10229357     0.06400
C1702       C  0.63386685  0.92882186  0.12187854     0.04500
H1703       H  0.66930796  0.91224225  0.05526763     0.09600
H1704       H  0.63012109  0.93687610  0.14559210     0.08500
N1705       N  0.91037185  0.60976743  0.11640776    -0.25900
N1706       N  0.91026199  0.64028906  0.11857660    -0.33800
C1707       C  0.92781722  0.64864020  0.14011275     0.02400
C1708       C  0.93968809  0.62224803  0.15217334     0.08500
C1709       C  0.92808482  0.59791097  0.13673318    -0.04600
H1710       H  0.92968054  0.67226893  0.14836106     0.09100
H1711       H  0.92965020  0.57380932  0.14228412     0.10300
Cu1712     Cu  0.88318299  0.67015185  0.09614956     0.44200
Cu1713     Cu  0.88027912  0.58718774  0.09200990     0.42000
Cu1714     Cu  0.83081591  0.63971509  0.05141814     0.43900
N1715       N  0.86219139  0.69671301  0.06543234    -0.33300
N1716       N  0.84459015  0.68493235  0.04620127    -0.27600
C1717       C  0.84259866  0.70414048  0.02285864    -0.03700
C1718       C  0.85987202  0.72921252  0.02770790     0.08600
C1719       C  0.87127852  0.72368496  0.05542333     0.02400
H1720       H  0.83311680  0.69803669  0.50179888     0.10000
H1721       H  0.88911856  0.73546940  0.06471036     0.09100
N1722       N  0.82077673  0.59559765  0.06639027    -0.34800
N1723       N  0.83905670  0.57629644  0.07945712    -0.26900
C1724       C  0.82418128  0.55230448  0.08985718    -0.02200
C1725       C  0.79503752  0.55666756  0.08339809     0.06400
C1726       C  0.79374631  0.58434027  0.06857897     0.04500
H1727       H  0.83311776  0.53513109  0.10430936     0.09600
H1728       H  0.77398583  0.59666354  0.06209808     0.08500
N1729       N  0.59776143  0.65603167  0.42594556    -0.25900
N1730       N  0.62055639  0.64017639  0.43606439    -0.33800
C1731       C  0.62853568  0.65516961  0.46123231     0.02400
C1732       C  0.60994830  0.68156845  0.46716375     0.08500
C1733       C  0.59041129  0.68127093  0.44467399    -0.04600
H1734       H  0.64684861  0.64765551  0.47389882     0.09100
H1735       H  0.57254959  0.69825881  0.44180522     0.10300
Cu1736     Cu  0.64037037  0.59836343  0.41615875     0.44200
Cu1737     Cu  0.57793633  0.64366704  0.38653800     0.42000
Cu1738     Cu  0.59316010  0.56369874  0.36648727     0.43900
N1739       N  0.65247778  0.55650805  0.39141411    -0.33300
N1740       N  0.63379810  0.54378806  0.37391653    -0.27600
C1741       C  0.64772655  0.52014982  0.35683067    -0.03700
C1742       C  0.67672711  0.51732460  0.36396268     0.08600
C1743       C  0.67907582  0.54060718  0.38628139     0.02400
H1744       H  0.63807158  0.50807733  0.33846200     0.10000
H1745       H  0.69888936  0.54679452  0.39648610     0.09100
N1746       N  0.56717604  0.59205481  0.34221901    -0.34800
N1747       N  0.56291672  0.62222176  0.34803015    -0.26900
C1748       C  0.55040608  0.63489996  0.32436938    -0.02200
C1749       C  0.54666699  0.61132875  0.30303778     0.06400
C1750       C  0.55755496  0.58460329  0.31499451     0.04500
H1751       H  0.54560926  0.65943601  0.32227510     0.09600
H1752       H  0.56012828  0.56173422  0.30386479     0.08500
N1753       N  0.69137034  0.97615856  0.10975725    -0.02100
C1754       C  0.68659324  0.94559006  0.10942748     0.00500
C1755       C  0.71281690  0.92828329  0.11092069    -0.22400
C1756       C  0.73461058  0.94891383  0.11245855    -0.22600
C1757       C  0.72118022  0.97834852  0.11103633     0.00400
H1758       H  0.71590573  0.90329561  0.11017373     0.14200
H1759       H  0.75767916  0.94257757  0.11431995     0.14200
N1760       N  0.76570781  0.51049777  0.09796810    -0.02100
C1761       C  0.76922222  0.54141946  0.09730419     0.00500
C1762       C  0.74394886  0.55786207  0.11002507    -0.22400
C1763       C  0.72413307  0.53653643  0.11873353    -0.22600
C1764       C  0.73727739  0.50752923  0.10990342     0.00400
H1765       H  0.74032889  0.58276940  0.11283566     0.14200
H1766       H  0.70238456  0.54200916  0.13022076     0.14200
N1767       N  0.82498208  0.95083413  0.09618619    -0.25900
N1768       N  0.81488119  0.94517518  0.06917009    -0.33800
C1769       C  0.79261330  0.96633285  0.06514119     0.02400
C1770       C  0.78876945  0.98630940  0.09073194     0.08500
C1771       C  0.80941699  0.97580957  0.11001564    -0.04600
H1772       H  0.77969035  0.96654970  0.04555622     0.09100
H1773       H  0.81227584  0.98504969  0.13275506     0.10300
Cu1774     Cu  0.83079347  0.90753963  0.03971277     0.44200
Cu1775     Cu  0.85861800  0.92309306  0.11399147     0.42000
Cu1776     Cu  0.88515197  0.85393974  0.06813768     0.43900
N1777       N  0.84848132  0.86695310  0.01568911    -0.33300
N1778       N  0.86832712  0.84747465  0.02610692    -0.27600
C1779       C  0.87286680  0.82223855  0.00693675    -0.03700
C1780       C  0.85496862  0.82578583  0.48312235     0.08600
C1781       C  0.83978684  0.85448723  0.98962163     0.02400
H1782       H  0.88715756  0.80249584  0.01110712     0.10000
H1783       H  0.82168214  0.86430295  0.47800221     0.09100
N1784       N  0.89993376  0.86499132  0.11033681    -0.34800
N1785       N  0.89126367  0.89066189  0.12685623    -0.26900
C1786       C  0.90575759  0.89088591  0.15246342    -0.02200
C1787       C  0.92426601  0.86413900  0.15189591     0.06400
C1788       C  0.91960730  0.84809837  0.12509726     0.04500
H1789       H  0.90245830  0.90871941  0.17062081     0.09600
H1790       H  0.92953362  0.82563098  0.11698943     0.08500
N1791       N  0.61129048  0.70440588  0.49181855    -0.02100
C1792       C  0.61416701  0.69763183  0.02119598     0.00500
C1793       C  0.61516164  0.72431340  0.03917062    -0.22400
C1794       C  0.61317759  0.74855735  0.02003731    -0.22600
C1795       C  0.61023038  0.73588018  0.49104143     0.00400
H1796       H  0.61617741  0.72603406  0.06369598     0.14200
H1797       H  0.61395470  0.77266152  0.02696053     0.14200
N1798       N  0.59242985  0.78266041  0.46271913    -0.02100
C1799       C  0.59300094  0.78901474  0.43271969     0.00500
C1800       C  0.60760123  0.76515602  0.41468066    -0.22400
C1801       C  0.61675828  0.74336801  0.43414120    -0.22600
C1802       C  0.60648474  0.75400970  0.46348117     0.00400
H1803       H  0.61196784  0.76418493  0.39005624     0.14200
H1804       H  0.63011463  0.72234815  0.42736447     0.14200
N1805       N  0.58556166  0.86063370  0.39533253    -0.25900
N1806       N  0.56780750  0.84368705  0.38023980    -0.33800
C1807       C  0.56438209  0.81719282  0.39456703     0.02400
C1808       C  0.58067362  0.81729468  0.41985425     0.08500
C1809       C  0.59382332  0.84526681  0.41954095    -0.04600
H1810       H  0.55416937  0.79749735  0.38496521     0.09100
H1811       H  0.61155666  0.85181560  0.43294843     0.10300
Cu1812     Cu  0.55604946  0.85208710  0.33630585     0.44200
Cu1813     Cu  0.60600160  0.89807313  0.37732373     0.42000
Cu1814     Cu  0.60638206  0.89816874  0.29476504     0.43900
N1815       N  0.55166065  0.86277398  0.29095665    -0.33300
N1816       N  0.57080820  0.87918460  0.27543363    -0.27600
C1817       C  0.55937237  0.88775583  0.24956982    -0.03700
C1818       C  0.53135952  0.87666955  0.24867697     0.08600
C1819       C  0.52758876  0.86047947  0.27525023     0.02400
H1820       H  0.56851497  0.90509046  0.23515529     0.10000
H1821       H  0.00697353  0.85217766  0.28484236     0.09100
N1822       N  0.63454113  0.92303791  0.32014334    -0.34800
N1823       N  0.63302065  0.92473393  0.35036943    -0.26900
C1824       C  0.65388014  0.94302202  0.35952730    -0.02200
C1825       C  0.66933411  0.95312756  0.33380413     0.06400
C1826       C  0.65668419  0.93985197  0.30928430     0.04500
H1827       H  0.65853607  0.94718556  0.38304374     0.09600
H1828       H  0.66338776  0.94190383  0.28528469     0.08500
N1829       N  0.97876633  0.60960581  0.18823358    -0.02100
C1830       C  0.95168371  0.62163889  0.18217044     0.00500
C1831       C  0.93735333  0.63734656  0.20753755    -0.22400
C1832       C  0.95613626  0.63534152  0.23016578    -0.22600
C1833       C  0.98136495  0.61800860  0.21813905     0.00400
H1834       H  0.91616644  0.65036817  0.20891165     0.14200
H1835       H  0.95236562  0.64756342  0.25218718     0.14200
N1836       N  0.00825429  0.61216568  0.26577053    -0.02100
C1837       C  0.53660121  0.61386571  0.27236071     0.00500
C1838       C  0.55493417  0.61658765  0.24616572    -0.22400
C1839       C  0.53689643  0.61745707  0.22246720    -0.22600
C1840       C  0.00825494  0.61417810  0.23497134     0.00400
H1841       H  0.57861105  0.61872693  0.24457764     0.14200
H1842       H  0.54394521  0.62202117  0.19908029     0.14200
N1843       N  0.87483462  0.69553189  0.39112367    -0.25900
N1844       N  0.90264043  0.70066213  0.38317037    -0.33800
C1845       C  0.91124953  0.72287671  0.40224151     0.02400
C1846       C  0.88768346  0.73198617  0.42357609     0.08500
C1847       C  0.86515670  0.71382488  0.41564874    -0.04600
H1848       H  0.93392800  0.72898139  0.40297446     0.09100
H1849       H  0.84512970  0.71006828  0.42940335     0.10300
Cu1850     Cu  0.92841171  0.67055929  0.35285318     0.44200
Cu1851     Cu  0.85377814  0.65829166  0.37423409     0.42000
Cu1852     Cu  0.89539043  0.59975749  0.32452901     0.43900
N1853       N  0.94994426  0.63704396  0.32278530    -0.33300
N1854       N  0.93849939  0.61198721  0.31153199    -0.27600
C1855       C  0.95840731  0.59785148  0.29003937    -0.03700
C1856       C  0.98334140  0.61485855  0.28835803     0.08600
C1857       C  0.97721800  0.63936494  0.30928593     0.02400
H1858       H  0.95450454  0.57774522  0.27585632     0.10000
H1859       H  0.99065634  0.65875083  0.31285823     0.09100
N1860       N  0.85125901  0.59602208  0.34157784    -0.34800
N1861       N  0.83624580  0.61796160  0.35926531    -0.26900
C1862       C  0.80820759  0.61014514  0.36490276    -0.02200
C1863       C  0.80514813  0.58165678  0.35048587     0.06400
C1864       C  0.83296809  0.57351295  0.33565536     0.04500
H1865       H  0.79097762  0.62462421  0.37792416     0.09600
H1866       H  0.83922478  0.55398150  0.32004348     0.08500
N1867       N  0.86602547  0.75057939  0.47549489    -0.02100
C1868       C  0.88982724  0.74584732  0.45462099     0.00500
C1869       C  0.91543582  0.74168400  0.46914896    -0.22400
C1870       C  0.90688290  0.74142397  0.49975423    -0.22600
C1871       C  0.87621400  0.74542290  0.50312114     0.00400
H1872       H  0.93728618  0.73448014  0.45865526     0.14200
H1873       H  0.92118595  0.73385276  0.01685208     0.14200
N1874       N  0.84613511  0.80183740  0.46237716    -0.02100
C1875       C  0.82818426  0.80842178  0.44002829     0.00500
C1876       C  0.81029620  0.78441270  0.43538650    -0.22400
C1877       C  0.81811584  0.76194567  0.45507515    -0.22600
C1878       C  0.84156577  0.77216298  0.47017119     0.00400
H1879       H  0.79499300  0.78231847  0.41792888     0.14200
H1880       H  0.80982800  0.73910123  0.45557135     0.14200
N1881       N  0.96768807  0.86525891  0.18352324    -0.02100
C1882       C  0.94192972  0.85340999  0.17669163     0.00500
C1883       C  0.93067779  0.83651383  0.20022281    -0.22400
C1884       C  0.94978146  0.83874200  0.22278112    -0.22600
C1885       C  0.97139358  0.85841213  0.21321349     0.00400
H1886       H  0.90957818  0.82609692  0.20198228     0.14200
H1887       H  0.94552664  0.83087829  0.24562687     0.14200
N1888       N  0.97943570  0.88171122  0.23516838    -0.02100
C1889       C  0.95965114  0.90537935  0.24523275     0.00500
C1890       C  0.97349516  0.93266743  0.24778938    -0.22400
C1891       C  0.00311079  0.92516895  0.24109928    -0.22600
C1892       C  0.50650019  0.89333507  0.23530183     0.00400
H1893       H  0.96381334  0.95461061  0.25772157     0.14200
H1894       H  0.52039807  0.94035062  0.24591519     0.14200
N1895       N  0.70002082  0.49794022  0.34701186    -0.02100
C1896       C  0.69641707  0.97028335  0.33236034     0.00500
C1897       C  0.72174858  0.95999781  0.31457250    -0.22400
C1898       C  0.74187983  0.98187133  0.31829500    -0.22600
C1899       C  0.72826837  0.50494175  0.33833708     0.00400
H1900       H  0.72501674  0.93913798  0.29994779     0.14200
H1901       H  0.76351086  0.98168644  0.30605825     0.14200
N1902       N  0.77140100  0.53679610  0.34810010    -0.02100
C1903       C  0.77655626  0.56732198  0.34744227     0.00500
C1904       C  0.75040187  0.58435902  0.34401928    -0.22400
C1905       C  0.72879730  0.56356627  0.34159057    -0.22600
C1906       C  0.74215901  0.53447680  0.34462181     0.00400
H1907       H  0.74754565  0.60917763  0.34226874     0.14200
H1908       H  0.70622650  0.56908135  0.33658669     0.14200
N1909       N  0.89883082  0.88958048  0.30058035    -0.25900
N1910       N  0.88854864  0.91542254  0.28924680    -0.33800
C1911       C  0.90724364  0.92329731  0.26596402     0.02400
C1912       C  0.93059693  0.90127370  0.26190642     0.08500
C1913       C  0.92470997  0.88038522  0.28456435    -0.04600
H1914       H  0.90531374  0.94493998  0.25465143     0.09100
H1915       H  0.93955290  0.86175695  0.29090711     0.10300
Cu1916     Cu  0.85357199  0.94261235  0.30998953     0.44200
Cu1917     Cu  0.87820812  0.87156859  0.34021792     0.42000
Cu1918     Cu  0.81470514  0.91985048  0.37893408     0.43900
N1919       N  0.82314299  0.97146994  0.33599325    -0.33300
N1920       N  0.80848160  0.96380502  0.36151821    -0.27600
C1921       C  0.78910249  0.98762002  0.37142719    -0.03700
C1922       C  0.79248251  0.01136821  0.35136382     0.08600
C1923       C  0.81370617  0.99995358  0.32888170     0.02400
H1924       H  0.77254930  0.98698710  0.39052694     0.10000
H1925       H  0.81957919  0.00997825  0.30727990     0.09100
N1926       N  0.82847461  0.87572683  0.39206364    -0.34800
N1927       N  0.85201010  0.85905957  0.37916957    -0.26900
C1928       C  0.85550901  0.83298999  0.39460391    -0.02200
C1929       C  0.83311091  0.83308306  0.41804796     0.06400
C1930       C  0.81618179  0.86032265  0.41548362     0.04500
H1931       H  0.87289004  0.81500376  0.38894218     0.09600
H1932       H  0.79660290  0.86861569  0.42988183     0.08500
N1933       N  0.53373001  0.59472669  0.62493825    -0.25900
N1934       N  0.54349250  0.57379314  0.64337064    -0.33800
C1935       C  0.52405716  0.57410096  0.66850717     0.02400
C1936       C  0.50149898  0.59670684  0.66546858     0.08500
C1937       C  0.50839577  0.60903801  0.63756027    -0.04600
H1938       H  0.52710648  0.56048140  0.68820915     0.09100
H1939       H  0.49732700  0.62883954  0.62823769     0.10300
Cu1940     Cu  0.58524688  0.54983062  0.63341508     0.44200
Cu1941     Cu  0.55769339  0.60876917  0.58681917     0.42000
Cu1942     Cu  0.63259915  0.58135419  0.57041081     0.43900
N1943       N  0.62732207  0.53059293  0.61565097    -0.33300
N1944       N  0.64353959  0.54148576  0.59246047    -0.27600
C1945       C  0.66869162  0.52341673  0.58644774    -0.03700
C1946       C  0.66867562  0.50047024  0.60726752     0.08600
C1947       C  0.64214242  0.50543861  0.62527810     0.02400
H1948       H  0.68589370  0.52714112  0.56868277     0.10000
H1949       H  0.63441822  0.49221970  0.64432876     0.09100
N1950       N  0.61539075  0.62174583  0.55336509    -0.34800
N1951       N  0.58714887  0.63099363  0.55871930    -0.26900
C1952       C  0.58244876  0.65878551  0.54704909    -0.02200
C1953       C  0.60899700  0.66739545  0.53364175     0.06400
C1954       C  0.62957267  0.64357852  0.53811458     0.04500
H1955       H  0.56159921  0.67244946  0.54962511     0.09600
H1956       H  0.65316264  0.64274422  0.53193478     0.08500
N1957       N  0.58971271  0.84166488  0.52296417    -0.25900
N1958       N  0.56574429  0.82745226  0.53216082    -0.33800
C1959       C  0.56207620  0.80442883  0.51120927     0.02400
C1960       C  0.58467792  0.80487161  0.48789734     0.08500
C1961       C  0.60174703  0.82853337  0.49619470    -0.04600
H1962       H  0.54502540  0.78807364  0.51329530     0.09100
H1963       H  0.62236634  0.83461103  0.98457256     0.10300
Cu1964     Cu  0.54098266  0.84018632  0.57426892     0.44200
Cu1965     Cu  0.60817547  0.87561939  0.54847232     0.42000
Cu1966     Cu  0.57450739  0.89698808  0.62348096     0.43900
N1967       N  0.52169657  0.85850918  0.61736099    -0.33300
N1968       N  0.53387068  0.87897088  0.63486912    -0.27600
C1969       C  0.51618463  0.88547243  0.66087268    -0.03700
C1970       C  0.49147853  0.86838152  0.65984879     0.08600
C1971       C  0.49586199  0.85146175  0.63197819     0.02400
H1972       H  0.52113777  0.90170464  0.67867749     0.10000
H1973       H  0.98186380  0.83437527  0.62342243     0.09100
N1974       N  0.61512306  0.91200108  0.60694027    -0.34800
N1975       N  0.62726869  0.90435557  0.57906518    -0.26900
C1976       C  0.65403855  0.91603034  0.57550520    -0.02200
C1977       C  0.65882687  0.93207535  0.60229780     0.06400
C1978       C  0.63386667  0.92882446  0.62188050     0.04500
H1979       H  0.66931358  0.91223673  0.55527424     0.09600
H1980       H  0.63011895  0.93688088  0.64559349     0.08500
N1981       N  0.91037202  0.60976538  0.61640347    -0.25900
N1982       N  0.91026199  0.64028691  0.61857190    -0.33800
C1983       C  0.92781849  0.64863844  0.64010679     0.02400
C1984       C  0.93968994  0.62224670  0.65216757     0.08500
C1985       C  0.92808607  0.59790949  0.63672833    -0.04600
H1986       H  0.92968116  0.67226693  0.64835521     0.09100
H1987       H  0.92965127  0.57380834  0.64228031     0.10300
Cu1988     Cu  0.88318041  0.67014957  0.59614760     0.44200
Cu1989     Cu  0.88027773  0.58718561  0.59200778     0.42000
Cu1990     Cu  0.83081135  0.63971347  0.55141905     0.43900
N1991       N  0.86218707  0.69671135  0.56543196    -0.33300
N1992       N  0.84458601  0.68493067  0.54620082    -0.27600
C1993       C  0.84259490  0.70413851  0.52285781    -0.03700
C1994       C  0.85986838  0.72921052  0.52770697     0.08600
C1995       C  0.87127423  0.72368325  0.55542285     0.02400
H1996       H  0.83312029  0.69803912  0.00179981     0.10000
H1997       H  0.88911406  0.73546741  0.56470978     0.09100
N1998       N  0.82077323  0.59559568  0.56639203    -0.34800
N1999       N  0.83905438  0.57629422  0.57945730    -0.26900
C2000       C  0.82417990  0.55230178  0.58985771    -0.02200
C2001       C  0.79503561  0.55666460  0.58340044     0.06400
C2002       C  0.79374308  0.58433777  0.56858203     0.04500
H2003       H  0.83311764  0.53512787  0.60430883     0.09600
H2004       H  0.77398174  0.59666118  0.56210271     0.08500
N2005       N  0.59775281  0.65603038  0.92594779    -0.25900
N2006       N  0.62054977  0.64017740  0.93606523    -0.33800
C2007       C  0.62852939  0.65517219  0.96123218     0.02400
C2008       C  0.60994005  0.68156956  0.96716429     0.08500
C2009       C  0.59040154  0.68126945  0.94467621    -0.04600
H2010       H  0.64684384  0.64766029  0.97389718     0.09100
H2011       H  0.57253860  0.69825572  0.94180814     0.10300
Cu2012     Cu  0.64036598  0.59836546  0.91615898     0.44200
Cu2013     Cu  0.57792691  0.64366468  0.88654121     0.42000
Cu2014     Cu  0.59315544  0.56369940  0.86648730     0.43900
N2015       N  0.65247406  0.55651053  0.89141331    -0.33300
N2016       N  0.63379432  0.54379052  0.87391571    -0.27600
C2017       C  0.64772261  0.52015214  0.85683000    -0.03700
C2018       C  0.67672312  0.51732653  0.86396228     0.08600
C2019       C  0.67907201  0.54060928  0.88628084     0.02400
H2020       H  0.63806718  0.50807912  0.83846192     0.10000
H2021       H  0.69888560  0.54679597  0.89648606     0.09100
N2022       N  0.56717019  0.59205452  0.84221945    -0.34800
N2023       N  0.56290871  0.62222090  0.84803213    -0.26900
C2024       C  0.55039839  0.63489965  0.82437139    -0.02200
C2025       C  0.54666163  0.61132927  0.80303822     0.06400
C2026       C  0.55755069  0.58460372  0.81499392     0.04500
H2027       H  0.54560064  0.65943549  0.82227808     0.09600
H2028       H  0.56012607  0.56173589  0.80386291     0.08500
N2029       N  0.69137216  0.97615802  0.60976090    -0.02100
C2030       C  0.68659499  0.94558950  0.60943244     0.00500
C2031       C  0.71281883  0.92828286  0.61092521    -0.22400
C2032       C  0.73461259  0.94891342  0.61246137    -0.22600
C2033       C  0.72118217  0.97834795  0.61103858     0.00400
H2034       H  0.71590805  0.90329517  0.61017839     0.14200
H2035       H  0.75768124  0.94257732  0.61432126     0.14200
N2036       N  0.76570752  0.51049376  0.59797134    -0.02100
C2037       C  0.76922130  0.54141570  0.59730754     0.00500
C2038       C  0.74394817  0.55785778  0.61002949    -0.22400
C2039       C  0.72413313  0.53653168  0.61873856    -0.22600
C2040       C  0.73727760  0.50752470  0.60990769     0.00400
H2041       H  0.74032765  0.58276532  0.61284029     0.14200
H2042       H  0.70238522  0.54200375  0.63022678     0.14200
N2043       N  0.82498260  0.95083207  0.59618280    -0.25900
N2044       N  0.81488286  0.94517448  0.56916600    -0.33800
C2045       C  0.79261515  0.96633248  0.56513734     0.02400
C2046       C  0.78877056  0.98630783  0.59072900     0.08500
C2047       C  0.80941733  0.97580697  0.61001293    -0.04600
H2048       H  0.77969305  0.96655036  0.54555186     0.09100
H2049       H  0.81227576  0.98504592  0.63275265     0.10300
Cu2050     Cu  0.83079675  0.90754012  0.53970787     0.44200
Cu2051     Cu  0.85861744  0.92309047  0.61398823     0.42000
Cu2052     Cu  0.88515499  0.85393931  0.56813345     0.43900
N2053       N  0.84848429  0.86695309  0.51568471    -0.33300
N2054       N  0.86832953  0.84747408  0.52610293    -0.27600
C2055       C  0.87286809  0.82223732  0.50693348    -0.03700
C2056       C  0.85496738  0.82578682  0.98312564     0.08600
C2057       C  0.83978917  0.85448697  0.48961774     0.02400
H2058       H  0.88715808  0.80249412  0.51110422     0.10000
H2059       H  0.82168019  0.86430271  0.97800613     0.09100
N2060       N  0.89993636  0.86499143  0.61033267    -0.34800
N2061       N  0.89126402  0.89066093  0.62685289    -0.26900
C2062       C  0.90575690  0.89088537  0.65246066    -0.02200
C2063       C  0.92426715  0.86413983  0.65189276     0.06400
C2064       C  0.91961057  0.84809947  0.62509318     0.04500
H2065       H  0.90245553  0.90871828  0.67061882     0.09600
H2066       H  0.92953836  0.82563289  0.61698501     0.08500
N2067       N  0.61128178  0.70440807  0.99181823    -0.02100
C2068       C  0.61417571  0.69762856  0.52119604     0.00500
C2069       C  0.61517105  0.72430938  0.53917148    -0.22400
C2070       C  0.61318744  0.74855402  0.52003894    -0.22600
C2071       C  0.61022069  0.73588244  0.99104013     0.00400
H2072       H  0.61618663  0.72602907  0.56369689     0.14200
H2073       H  0.61396473  0.77265775  0.52696288     0.14200
N2074       N  0.59241982  0.78266252  0.96271764    -0.02100
C2075       C  0.59298893  0.78901622  0.93271817     0.00500
C2076       C  0.60758617  0.76515611  0.91467851    -0.22400
C2077       C  0.61674377  0.74336800  0.93413879    -0.22600
C2078       C  0.60647324  0.75401097  0.96347939     0.00400
H2079       H  0.61195125  0.76418489  0.89005370     0.14200
H2080       H  0.63009913  0.72234730  0.92736139     0.14200
N2081       N  0.58555766  0.86063680  0.89533258    -0.25900
N2082       N  0.56780111  0.84369305  0.88023988    -0.33800
C2083       C  0.56437260  0.81719904  0.89456664     0.02400
C2084       C  0.58066448  0.81729794  0.91985356     0.08500
C2085       C  0.59381764  0.84526813  0.91954054    -0.04600
H2086       H  0.55415749  0.79750517  0.88496449     0.09100
H2087       H  0.61155228  0.85181390  0.93294794     0.10300
Cu2088     Cu  0.55604455  0.85209511  0.83630606     0.44200
Cu2089     Cu  0.60600136  0.89807428  0.87732424     0.42000
Cu2090     Cu  0.60637956  0.89817461  0.79476529     0.43900
N2091       N  0.55165797  0.86278022  0.79095630    -0.33300
N2092       N  0.57080593  0.87919028  0.77543335    -0.27600
C2093       C  0.55937113  0.88775994  0.74956842    -0.03700
C2094       C  0.53135848  0.87667325  0.74867498     0.08600
C2095       C  0.52758691  0.86048448  0.77524882     0.02400
H2096       H  0.56851413  0.90509352  0.73515330     0.10000
H2097       H  0.00697214  0.85218271  0.78484014     0.09100
N2098       N  0.63453982  0.92304155  0.82014454    -0.34800
N2099       N  0.63302032  0.92473569  0.85037058    -0.26900
C2100       C  0.65388033  0.94302282  0.85952904    -0.02200
C2101       C  0.66933382  0.95312960  0.83380633     0.06400
C2102       C  0.65668295  0.93985591  0.80928609     0.04500
H2103       H  0.65853679  0.94718491  0.88304560     0.09600
H2104       H  0.66338608  0.94190894  0.78528696     0.08500
N2105       N  0.97876701  0.60960634  0.68822991    -0.02100
C2106       C  0.95168450  0.62163842  0.68216529     0.00500
C2107       C  0.93735282  0.63734617  0.70753152    -0.22400
C2108       C  0.95613490  0.63534243  0.73016055    -0.22600
C2109       C  0.98136432  0.61801008  0.71813531     0.00400
H2110       H  0.91616565  0.65036688  0.70890465     0.14200
H2111       H  0.95236306  0.64756454  0.75218143     0.14200
N2112       N  0.00825091  0.61216855  0.76576875    -0.02100
C2113       C  0.53659750  0.61386716  0.77236052     0.00500
C2114       C  0.55493195  0.61658715  0.74616627    -0.22400
C2115       C  0.53689553  0.61745708  0.72246661    -0.22600
C2116       C  0.00825320  0.61417999  0.73496940     0.00400
H2117       H  0.57860906  0.61872472  0.74457938     0.14200
H2118       H  0.54394585  0.62201975  0.69907984     0.14200
N2119       N  0.87483155  0.69552713  0.89112880    -0.25900
N2120       N  0.90263562  0.70066082  0.88317108    -0.33800
C2121       C  0.91124470  0.72287745  0.90223996     0.02400
C2122       C  0.88768037  0.73198475  0.92357734     0.08500
C2123       C  0.86515481  0.71381987  0.91565444    -0.04600
H2124       H  0.93392208  0.72898536  0.90296926     0.09100
H2125       H  0.84513002  0.71006120  0.92941242     0.10300
Cu2126     Cu  0.92840622  0.67056103  0.85285053     0.44200
Cu2127     Cu  0.85377687  0.65828414  0.87424237     0.42000
Cu2128     Cu  0.89538659  0.59975859  0.82452524     0.43900
N2129       N  0.94993906  0.63704713  0.82278149    -0.33300
N2130       N  0.93849479  0.61199014  0.81152807    -0.27600
C2131       C  0.95840325  0.59785457  0.79003587    -0.03700
C2132       C  0.98333708  0.61486206  0.78835505     0.08600
C2133       C  0.97721297  0.63936856  0.80928267     0.02400
H2134       H  0.95450114  0.57774809  0.77585327     0.10000
H2135       H  0.99065103  0.65875445  0.81285554     0.09100
N2136       N  0.85125691  0.59601923  0.84157776    -0.34800
N2137       N  0.83624468  0.61795517  0.85927055    -0.26900
C2138       C  0.80820712  0.61013704  0.86490934    -0.02200
C2139       C  0.80514713  0.58165144  0.85048761     0.06400
C2140       C  0.83296586  0.57351088  0.83565275     0.04500
H2141       H  0.79097744  0.62461372  0.87793458     0.09600
H2142       H  0.83922088  0.55398329  0.82003644     0.08500
N2143       N  0.86602609  0.75058075  0.97549594    -0.02100
C2144       C  0.88982659  0.74584814  0.95462077     0.00500
C2145       C  0.91543611  0.74168556  0.96914736    -0.22400
C2146       C  0.90688504  0.74142645  0.99975316    -0.22600
C2147       C  0.87621623  0.74542531  0.00312166     0.00400
H2148       H  0.93728577  0.73448123  0.95865255     0.14200
H2149       H  0.92118262  0.73384978  0.51685375     0.14200
N2150       N  0.84613478  0.80183867  0.96237960    -0.02100
C2151       C  0.82818434  0.80842302  0.94003033     0.00500
C2152       C  0.81029690  0.78441363  0.93538761    -0.22400
C2153       C  0.81811663  0.76194651  0.95507611    -0.22600
C2154       C  0.84156598  0.77216399  0.97017291     0.00400
H2155       H  0.79499419  0.78231908  0.91792963     0.14200
H2156       H  0.80982914  0.73910209  0.95557199     0.14200
N2157       N  0.96768786  0.86525992  0.68352152    -0.02100
C2158       C  0.94192980  0.85341104  0.67668923     0.00500
C2159       C  0.93067612  0.83651665  0.70022098    -0.22400
C2160       C  0.94977842  0.83874547  0.72278043    -0.22600
C2161       C  0.97139152  0.85841446  0.71321265     0.00400
H2162       H  0.90957617  0.82610062  0.70197948     0.14200
H2163       H  0.94552212  0.83088264  0.74562678     0.14200
N2164       N  0.97943469  0.88171357  0.73516695    -0.02100
C2165       C  0.95965054  0.90538199  0.74523229     0.00500
C2166       C  0.97349464  0.93267022  0.74778628    -0.22400
C2167       C  0.00310988  0.92517141  0.74109383    -0.22600
C2168       C  0.50649929  0.89333743  0.73529830     0.00400
H2169       H  0.96381370  0.95461436  0.75771842     0.14200
H2170       H  0.52039781  0.94035310  0.74590757     0.14200
N2171       N  0.70001636  0.49793976  0.84701343    -0.02100
C2172       C  0.69641703  0.97028498  0.83236295     0.00500
C2173       C  0.72174921  0.95999871  0.81457652    -0.22400
C2174       C  0.74188074  0.98187185  0.81829993    -0.22600
C2175       C  0.72826524  0.50493835  0.83833991     0.00400
H2176       H  0.72501750  0.93913863  0.79995208     0.14200
H2177       H  0.76351237  0.98168633  0.80606411     0.14200
N2178       N  0.77139931  0.53679160  0.84810133    -0.02100
C2179       C  0.77655539  0.56731727  0.84744236     0.00500
C2180       C  0.75040174  0.58435489  0.84401825    -0.22400
C2181       C  0.72879671  0.56356257  0.84159016    -0.22600
C2182       C  0.74215734  0.53447293  0.84462287     0.00400
H2183       H  0.74754599  0.60917348  0.84226692     0.14200
H2184       H  0.70622660  0.56907789  0.83658572     0.14200
N2185       N  0.89883272  0.88958333  0.80058380    -0.25900
N2186       N  0.88855066  0.91542614  0.78925161    -0.33800
C2187       C  0.90724481  0.92330107  0.76596822     0.02400
C2188       C  0.93059739  0.90127681  0.76190854     0.08500
C2189       C  0.92471110  0.88038784  0.78456625    -0.04600
H2190       H  0.90531458  0.94494391  0.75465598     0.09100
H2191       H  0.93955376  0.86175872  0.79090742     0.10300
Cu2192     Cu  0.85357454  0.94261580  0.80999593     0.44200
Cu2193     Cu  0.87820971  0.87157011  0.84022076     0.42000
Cu2194     Cu  0.81470584  0.91985210  0.87893779     0.43900
N2195       N  0.82314430  0.97147267  0.83599899    -0.33300
N2196       N  0.80848239  0.96380723  0.86152333    -0.27600
C2197       C  0.78910261  0.98762187  0.87143206    -0.03700
C2198       C  0.79248274  0.01137040  0.85136906     0.08600
C2199       C  0.81370694  0.99995616  0.82888729     0.02400
H2200       H  0.77254896  0.98698837  0.89053096     0.10000
H2201       H  0.81957984  0.00998075  0.80728574     0.09100
N2202       N  0.82847537  0.87572818  0.89206616    -0.34800
N2203       N  0.85201075  0.85906083  0.87917192    -0.26900
C2204       C  0.85550941  0.83299114  0.89460615    -0.02200
C2205       C  0.83311119  0.83308424  0.91805005     0.06400
C2206       C  0.81618230  0.86032391  0.91548591     0.04500
H2207       H  0.87289049  0.81500504  0.88894475     0.09600
H2208       H  0.79660354  0.86861709  0.92988415     0.08500
loop_ 
_geom_bond_atom_site_label_1 
_geom_bond_atom_site_label_2 
_geom_bond_distance 
_geom_bond_site_symmetry_2 
_ccdc_geom_bond_type 
N1            N2   1.323       .  A
N1            C5   1.341       .  A
N1           Cu9   2.055       .  S
N2            C3   1.355       .  A
N2           Cu8   2.112       .  S
C3            C4   1.394       .  A
C3            H6   1.082       .  S
C4            C5   1.378       .  A
C4         N1277   1.446   1_455  S
C5            H7   1.081   1_455  S
Cu8          N11   2.114       .  S
Cu9          N19   2.055       .  S
Cu10         N12   2.071       .  S
Cu10         N18   2.069       .  S
N11          N12   1.327       .  A
N11          C15   1.349       .  A
N12          C13   1.347       .  A
C13          C14   1.379       .  A
C13          H16   1.082       .  S
C14          C15   1.387       .  A
C14         N649   1.444   1_545  S
C15          H17   1.080   1_545  S
N18          N19   1.320       .  A
N18          C22   1.347       .  A
N19          C20   1.341       .  A
C20          C21   1.377       .  A
C20          H23   1.082       .  S
C21          C22   1.382       .  A
C21         C136   1.465       .  S
C22          H24   1.082       .  S
N25          N26   1.325       .  A
N25          C29   1.344   1_554  A
N25         Cu33   2.071       .  S
N26          C27   1.356       .  A
N26         Cu32   2.119       .  S
C27          C28   1.390   1_554  A
C27          H30   1.082       .  S
C28          C29   1.377       .  A
C28         N418   1.442       .  S
C29         H307   1.081       .  S
H31         C305   1.081       .  S
Cu32         N35   2.121       .  S
Cu33         N43   2.072       .  S
Cu34         N36   2.078       .  S
Cu34         N42   2.078       .  S
N35          N36   1.325       .  A
N35          C39   1.348   1_455  A
N36          C37   1.351       .  A
C37          C38   1.384   1_455  A
C37          H40   1.077       .  S
C38          C39   1.394       .  A
C38        N1329   1.453       .  S
C39        H1145   1.080       .  S
H41        C1143   1.080       .  S
N42          N43   1.322       .  A
N42          C46   1.347       .  A
N43          C44   1.345       .  A
C44          C45   1.382       .  A
C44          H47   1.082       .  S
C45          C46   1.383       .  A
C45          C98   1.474       .  S
C46          H48   1.081       .  S
N49          N50   1.322       .  A
N49          C53   1.349       .  A
N49         Cu57   2.072       .  S
N50          C51   1.339       .  A
N50         Cu56   2.069       .  S
C51          C52   1.380       .  A
C51          H54   1.082       .  S
C52          C53   1.384       .  A
C52         C174   1.468       .  S
C53          H55   1.082       .  S
Cu56         N59   2.067       .  S
Cu57         N67   2.071       .  S
Cu58         N60   2.108       .  S
Cu58         N66   2.111       .  S
N59          N60   1.319       .  A
N59          C63   1.342       .  A
N60          C61   1.353       .  A
C61          C62   1.397       .  A
C61         H340   1.082       .  S
C62          C63   1.387       .  A
C62         C491   1.485       .  S
C63          H65   1.082       .  S
H64         C337   1.082       .  S
N66          N67   1.325       .  A
N66          C70   1.346       .  A
N67          C68   1.348       .  A
C68          C69   1.381       .  A
C68          H71   1.081       .  S
C69          C70   1.389       .  A
C69         C105   1.481       .  S
C70          H72   1.082       .  S
N73          N74   1.327       .  A
N73          C77   1.349       .  A
N73         Cu81   2.082       .  S
N74          C75   1.346       .  A
N74         Cu80   2.098       .  S
C75          C76   1.383       .  A
C75          H78   1.081       .  S
C76          C77   1.383       .  A
C76         N135   1.444       .  S
C77          H79   1.082       .  S
Cu80         N83   2.095       .  S
Cu81         N91   2.080       .  S
Cu82         N84   2.048       .  S
Cu82         N90   2.046       .  S
N83          N84   1.321       .  A
N83          C87   1.352       .  A
N84          C85   1.339       .  A
C85          C86   1.379       .  A
C85          H88   1.081       .  S
C86          C87   1.392       .  A
C86         N239   1.446   1_545  S
C87          H89   1.081       .  S
N90          N91   1.321       .  A
N90          C94   1.341       .  A
N91          C92   1.347       .  A
C92          C93   1.385       .  A
C92          H95   1.082       .  S
C93          C94   1.374       .  A
C93         C181   1.465       .  S
C94          H96   1.082       .  S
N97         C101   1.369       .  A
N97          C98   1.355       .  A
N97         C566   1.444       .  S
C98          C99   1.378       .  A
C99         C100   1.377       .  A
C99         H102   1.082       .  S
C100        C101   1.387       .  A
C100        H103   1.078       .  S
C101        C660   1.498       .  S
N104        C108   1.369       .  A
N104        C105   1.360       .  A
N104        C666   1.443   1_545  S
C105        C106   1.379       .  A
C106        C107   1.372       .  A
C106        H109   1.082       .  S
C107        C108   1.385       .  A
C107        H110   1.080       .  S
C108        C653   1.498   1_545  S
N111        N112   1.327       .  A
N111        C115   1.350       .  A
N111       Cu119   2.110       .  S
N112        C113   1.352       .  A
N112       Cu118   2.094       .  S
C113        C114   1.383       .  A
C113        H116   1.082       .  S
C114        C115   1.385       .  A
C114        N656   1.443       .  S
C115        H117   1.082       .  S
Cu118       N121   2.095       .  S
Cu119       N129   2.110       .  S
Cu120       N122   2.072       .  S
Cu120       N128   2.071       .  S
N121        N122   1.321       .  A
N121        C125   1.345   1_554  A
N122        C123   1.347       .  A
C123        C400   1.386   1_554  A
C123        H126   1.074       .  S
C124        C399   1.386       .  A
C124        C401   1.393       .  A
C124        N218   1.449       .  S
C125        C400   1.393       .  A
C125        H403   1.079       .  S
H127        C401   1.079       .  S
N128        N129   1.324       .  A
N128        C132   1.347       .  A
N129        C130   1.350       .  A
C130        C131   1.389       .  A
C130        H133   1.082       .  S
C131        C132   1.380       .  A
C131        C226   1.480       .  S
C132        H134   1.082       .  S
N135        C139   1.364       .  A
N135        C412   1.351       .  A
C136        N411   1.351   1_554  A
C136        C137   1.378       .  A
C137        C138   1.376       .  A
C137        H140   1.082       .  S
C138        C415   1.386   1_554  A
C138        H141   1.079       .  S
C139        C414   1.386       .  A
C139        C146   1.487       .  S
N142        C146   1.365       .  A
N142        C143   1.356       .  A
N142        C304   1.442       .  S
C143        C144   1.378       .  A
C143        C152   1.471       .  S
C144        C145   1.370       .  A
C144        H147   1.082       .  S
C145        C146   1.385       .  A
C145        H148   1.081       .  S
N149        N150   1.322       .  A
N149        C153   1.346       .  A
N149       Cu157   2.070       .  S
N150        C151   1.343       .  A
N150       Cu156   2.086       .  S
C151        C152   1.386       .  A
C151        H154   1.082       .  S
C152        C153   1.383       .  A
C153        H155   1.081       .  S
Cu156       N159   2.088       .  S
Cu157       N167   2.070       .  S
Cu158       N160   2.083       .  S
Cu158       N166   2.084       .  S
N159        N160   1.320       .  A
N159        C163   1.347       .  A
N160        C161   1.346       .  A
C161        C162   1.390       .  A
C161        H164   1.082       .  S
C162        C163   1.391       .  A
C162        C236   1.481       .  S
C163       H1269   1.082       .  S
H165       C1267   1.082       .  S
N166        N167   1.323       .  A
N166        C170   1.344       .  A
N167        C168   1.347       .  A
C168        C169   1.382       .  A
C168        H171   1.082       .  S
C169        C170   1.383       .  A
C169        C240   1.473       .  S
C170        H172   1.082       .  S
N173        C177   1.365       .  A
N173        C174   1.359       .  A
N173       C1108   1.446       .  S
C174        C175   1.376       .  A
C175        C176   1.365       .  A
C175        H178   1.082       .  S
C176        C177   1.386       .  A
C176        H179   1.079       .  S
C177        C184   1.485       .  S
N180        C184   1.360       .  A
N180       C1285   1.349       .  A
N180        C200   1.438       .  S
C181       N1284   1.349       .  A
C181        C182   1.377       .  A
C182        C183   1.378       .  A
C182        H185   1.082       .  S
C183       C1288   1.388       .  A
C183        H186   1.081       .  S
C184       C1287   1.388       .  A
N187        N188   1.317       .  A
N187        C191   1.338       .  A
N187       Cu195   2.067       .  S
N188        C189   1.347       .  A
N188       Cu194   2.064       .  S
C189        C190   1.390       .  A
C189        H192   1.082       .  S
C190        C191   1.386       .  A
C190        C212   1.480       .  S
C191        H193   1.074       .  S
Cu194       N197   2.066       .  S
Cu195       N205   2.068       .  S
Cu196       N198   2.099       .  S
Cu196       N204   2.099       .  S
N197        N198   1.326       .  A
N197        C201   1.340       .  A
N198        C199   1.352       .  A
C199        C200   1.386       .  A
C199        H202   1.082       .  S
C200        C201   1.375       .  A
C201        H203   1.081       .  S
N204        N205   1.321       .  A
N204        C208   1.349       .  A
N205        C206   1.344       .  A
C206        C207   1.383       .  A
C206        H209   1.082       .  S
C207        C208   1.392       .  A
C207        C247   1.486       .  S
C208        H210   1.076       .  S
N211        C215   1.357       .  A
N211        C212   1.359       .  A
N211        C222   1.450       .  S
C212        C213   1.379       .  A
C213        C214   1.369       .  A
C213        H216   1.082       .  S
C214        C215   1.389       .  A
C214        H493   1.082       .  S
C215        C338   1.485       .  S
H217        C490   1.082   1_554  S
N218        C222   1.368       .  A
N218        C219   1.357       .  A
C219        C220   1.377       .  A
C219        C273   1.485       .  S
C220        C221   1.380       .  A
C220        H223   1.082       .  S
C221        C222   1.386       .  A
C221        H224   1.080       .  S
N225        C229   1.372       .  A
N225        C226   1.357       .  A
N225       C1142   1.453       .  S
C226        C227   1.374       .  A
C227        C228   1.375       .  A
C227        H230   1.082       .  S
C228        C229   1.389       .  A
C228        H231   1.080       .  S
C229        N232   1.451       .  S
N232        C233   1.357       .  A
N232       C1340   1.357       .  A
C233        C234   1.377       .  A
C233        C256   1.480       .  S
C234        C235   1.370       .  A
C234        H237   1.082       .  S
C235       C1340   1.389       .  A
C235       H1342   1.083       .  S
C236       N1336   1.357   1_455  A
C236       C1339   1.389       .  A
H238       C1339   1.083       .  S
N239        C243   1.364   1_565  A
N239        C792   1.361       .  A
C240        N791   1.361       .  A
C240        C241   1.376       .  A
C241        C242   1.370       .  A
C241        H244   1.082       .  S
C242        C795   1.385       .  A
C242        H245   1.080       .  S
C243        C794   1.385   1_545  A
C243        C250   1.486       .  S
N246        C250   1.359       .  A
N246        C247   1.358       .  A
N246        C818   1.436       .  S
C247        C248   1.384       .  A
C248        C249   1.379       .  A
C248        H251   1.082       .  S
C249        C250   1.383       .  A
C249        H252   1.082       .  S
N253        N254   1.320       .  A
N253        C257   1.349       .  A
N253       Cu261   2.110       .  S
N254        C255   1.343       .  A
N254       Cu260   2.047       .  S
C255        C256   1.379       .  A
C255        H258   1.082       .  S
C256        C257   1.394       .  A
C257        H259   1.081       .  S
Cu260       N263   2.048       .  S
Cu261       N271   2.111       .  S
Cu262       N264   2.095       .  S
Cu262       N270   2.095       .  S
N263        N264   1.321       .  A
N263        C267   1.340       .  A
N264        C265   1.349       .  A
C265        C266   1.390       .  A
C265        H268   1.082       .  S
C266        C267   1.376       .  A
C266        N798   1.436       .  S
C267        H269   1.080       .  S
N270        N271   1.326       .  A
N270        C274   1.350       .  A
N271        C272   1.350       .  A
C272        C273   1.386       .  A
C272        H275   1.082       .  S
C273        C274   1.384       .  A
C274        H276   1.082       .  S
N277        N278   1.323       .  A
N277        C281   1.341       .  A
N277       Cu285   2.055       .  S
N278        C279   1.355       .  A
N278       Cu284   2.112       .  S
C279        C280   1.394       .  A
C279        H282   1.082       .  S
C280        C281   1.378       .  A
C280       N1553   1.446   1_455  S
C281        H283   1.081   1_455  S
Cu284       N287   2.114       .  S
Cu285       N295   2.055       .  S
Cu286       N288   2.071       .  S
Cu286       N294   2.069       .  S
N287        N288   1.327       .  A
N287        C291   1.349       .  A
N288        C289   1.347       .  A
C289        C290   1.379       .  A
C289        H292   1.082       .  S
C290        C291   1.387       .  A
C290        N925   1.444   1_545  S
C291        H293   1.080   1_545  S
N294        N295   1.320       .  A
N294        C298   1.347       .  A
N295        C296   1.341       .  A
C296        C297   1.377       .  A
C296        H299   1.082       .  S
C297        C298   1.382       .  A
C297        C412   1.465       .  S
C298        H300   1.082       .  S
N301        N302   1.325       .  A
N301        C305   1.344       .  A
N301       Cu309   2.071       .  S
N302        C303   1.356       .  A
N302       Cu308   2.119       .  S
C303        C304   1.390       .  A
C303        H306   1.082       .  S
C304        C305   1.377       .  A
Cu308       N311   2.121       .  S
Cu309       N319   2.072       .  S
Cu310       N312   2.078       .  S
Cu310       N318   2.078       .  S
N311        N312   1.325       .  A
N311        C315   1.348   1_455  A
N312        C313   1.351       .  A
C313        C314   1.384   1_455  A
C313        H316   1.077       .  S
C314        C315   1.394       .  A
C314       N1605   1.453       .  S
C315       H1421   1.080       .  S
H317       C1419   1.080       .  S
N318        N319   1.322       .  A
N318        C322   1.347       .  A
N319        C320   1.345       .  A
C320        C321   1.382       .  A
C320        H323   1.082       .  S
C321        C322   1.383       .  A
C321        C374   1.474       .  S
C322        H324   1.081       .  S
N325        N326   1.322       .  A
N325        C329   1.349       .  A
N325       Cu333   2.072       .  S
N326        C327   1.339       .  A
N326       Cu332   2.069       .  S
C327        C328   1.380       .  A
C327        H330   1.082       .  S
C328        C329   1.384       .  A
C328        C450   1.468       .  S
C329        H331   1.082       .  S
Cu332       N335   2.067       .  S
Cu333       N343   2.071       .  S
Cu334       N336   2.108       .  S
Cu334       N342   2.110       .  S
N335        N336   1.319       .  A
N335        C339   1.342       .  A
N336        C337   1.353       .  A
C337        C338   1.397       .  A
C338        C339   1.387       .  A
C339        H341   1.082       .  S
N342        N343   1.325       .  A
N342        C346   1.346       .  A
N343        C344   1.348       .  A
C344        C345   1.381       .  A
C344        H347   1.081       .  S
C345        C346   1.389       .  A
C345        C381   1.481       .  S
C346        H348   1.082       .  S
N349        N350   1.327       .  A
N349        C353   1.349       .  A
N349       Cu357   2.082       .  S
N350        C351   1.346       .  A
N350       Cu356   2.098       .  S
C351        C352   1.383       .  A
C351        H354   1.081       .  S
C352        C353   1.383       .  A
C352        N411   1.444       .  S
C353        H355   1.082       .  S
Cu356       N359   2.095       .  S
Cu357       N367   2.080       .  S
Cu358       N360   2.048       .  S
Cu358       N366   2.046       .  S
N359        N360   1.321       .  A
N359        C363   1.352       .  A
N360        C361   1.339       .  A
C361        C362   1.379       .  A
C361        H364   1.081       .  S
C362        C363   1.392       .  A
C362        N515   1.446   1_545  S
C363        H365   1.081       .  S
N366        N367   1.321       .  A
N366        C370   1.341       .  A
N367        C368   1.347       .  A
C368        C369   1.385       .  A
C368        H371   1.082       .  S
C369        C370   1.374       .  A
C369        C457   1.465       .  S
C370        H372   1.082       .  S
N373        C377   1.369       .  A
N373        C374   1.355       .  A
N373        C842   1.444       .  S
C374        C375   1.378       .  A
C375        C376   1.377       .  A
C375        H378   1.082       .  S
C376        C377   1.387       .  A
C376        H379   1.078       .  S
C377        C936   1.498       .  S
N380        C384   1.369       .  A
N380        C381   1.360       .  A
N380        C942   1.443   1_545  S
C381        C382   1.379       .  A
C382        C383   1.372       .  A
C382        H385   1.082       .  S
C383        C384   1.385       .  A
C383        H386   1.080       .  S
C384        C929   1.498   1_545  S
N387        N388   1.327       .  A
N387        C391   1.350       .  A
N387       Cu395   2.110       .  S
N388        C389   1.352       .  A
N388       Cu394   2.094       .  S
C389        C390   1.383       .  A
C389        H392   1.082       .  S
C390        C391   1.385       .  A
C390        N932   1.443       .  S
C391        H393   1.082       .  S
Cu394       N397   2.095       .  S
Cu395       N405   2.110       .  S
Cu396       N398   2.072       .  S
Cu396       N404   2.071       .  S
N397        N398   1.321       .  A
N397        C401   1.345       .  A
N398        C399   1.347       .  A
C399        H402   1.074       .  S
C400        N494   1.449       .  S
N404        N405   1.324       .  A
N404        C408   1.347       .  A
N405        C406   1.350       .  A
C406        C407   1.389       .  A
C406        H409   1.082       .  S
C407        C408   1.380       .  A
C407        C502   1.480       .  S
C408        H410   1.082       .  S
N411        C415   1.364       .  A
C412        C413   1.378       .  A
C413        C414   1.376       .  A
C413        H416   1.082       .  S
C414        H417   1.079       .  S
C415        C422   1.487       .  S
N418        C422   1.365       .  A
N418        C419   1.356       .  A
C419        C420   1.378       .  A
C419        C428   1.471       .  S
C420        C421   1.370       .  A
C420        H423   1.082       .  S
C421        C422   1.385       .  A
C421        H424   1.081       .  S
N425        N426   1.322       .  A
N425        C429   1.346       .  A
N425       Cu433   2.070       .  S
N426        C427   1.343       .  A
N426       Cu432   2.086       .  S
C427        C428   1.386       .  A
C427        H430   1.082       .  S
C428        C429   1.383       .  A
C429        H431   1.081       .  S
Cu432       N435   2.088       .  S
Cu433       N443   2.070       .  S
Cu434       N436   2.083       .  S
Cu434       N442   2.084       .  S
N435        N436   1.320       .  A
N435        C439   1.347       .  A
N436        C437   1.346       .  A
C437        C438   1.390       .  A
C437        H440   1.082       .  S
C438        C439   1.391       .  A
C438        C512   1.481       .  S
C439       H1545   1.082       .  S
H441       C1543   1.082       .  S
N442        N443   1.323       .  A
N442        C446   1.344       .  A
N443        C444   1.347       .  A
C444        C445   1.382       .  A
C444        H447   1.082       .  S
C445        C446   1.383       .  A
C445        C516   1.473       .  S
C446        H448   1.082       .  S
N449        C453   1.365       .  A
N449        C450   1.359       .  A
N449       C1384   1.446       .  S
C450        C451   1.376       .  A
C451        C452   1.365       .  A
C451        H454   1.082       .  S
C452        C453   1.386       .  A
C452        H455   1.079       .  S
C453        C460   1.485       .  S
N456        C460   1.360       .  A
N456       C1561   1.349       .  A
N456        C476   1.438       .  S
C457       N1560   1.349       .  A
C457        C458   1.377       .  A
C458        C459   1.378       .  A
C458        H461   1.082       .  S
C459       C1564   1.388       .  A
C459        H462   1.081       .  S
C460       C1563   1.388       .  A
N463        N464   1.317       .  A
N463        C467   1.338       .  A
N463       Cu471   2.067       .  S
N464        C465   1.347       .  A
N464       Cu470   2.064       .  S
C465        C466   1.390       .  A
C465        H468   1.082       .  S
C466        C467   1.386       .  A
C466        C488   1.480       .  S
C467        H469   1.074       .  S
Cu470       N473   2.066       .  S
Cu471       N481   2.068       .  S
Cu472       N474   2.099       .  S
Cu472       N480   2.099       .  S
N473        N474   1.326       .  A
N473        C477   1.340       .  A
N474        C475   1.352       .  A
C475        C476   1.386       .  A
C475        H478   1.082       .  S
C476        C477   1.375       .  A
C477        H479   1.081       .  S
N480        N481   1.321       .  A
N480        C484   1.349       .  A
N481        C482   1.344       .  A
C482        C483   1.383       .  A
C482        H485   1.082       .  S
C483        C484   1.392       .  A
C483        C523   1.486       .  S
C484        H486   1.076       .  S
N487        C491   1.357   1_556  A
N487        C488   1.359       .  A
N487        C498   1.450       .  S
C488        C489   1.379       .  A
C489        C490   1.369       .  A
C489        H492   1.082       .  S
C490        C491   1.389   1_556  A
N494        C498   1.368       .  A
N494        C495   1.357       .  A
C495        C496   1.377       .  A
C495        C549   1.485       .  S
C496        C497   1.380       .  A
C496        H499   1.082       .  S
C497        C498   1.386       .  A
C497        H500   1.080       .  S
N501        C505   1.372       .  A
N501        C502   1.357       .  A
N501       C1418   1.453       .  S
C502        C503   1.374       .  A
C503        C504   1.375       .  A
C503        H506   1.082       .  S
C504        C505   1.389       .  A
C504        H507   1.080       .  S
C505        N508   1.451       .  S
N508       C1616   1.357       .  A
N508        C509   1.357       .  A
C509        C510   1.377       .  A
C509        C532   1.480       .  S
C510        C511   1.370       .  A
C510        H513   1.082       .  S
C511       C1616   1.389       .  A
C511       H1618   1.083       .  S
C512       N1612   1.357   1_455  A
C512       C1615   1.389       .  A
H514       C1615   1.083       .  S
N515        C519   1.364   1_565  A
N515       C1068   1.361       .  A
C516       N1067   1.361       .  A
C516        C517   1.376       .  A
C517        C518   1.370       .  A
C517        H520   1.082       .  S
C518       C1071   1.385       .  A
C518        H521   1.080       .  S
C519       C1070   1.385   1_545  A
C519        C526   1.486       .  S
N522        C526   1.359       .  A
N522        C523   1.358       .  A
N522       C1094   1.436       .  S
C523        C524   1.384       .  A
C524        C525   1.379       .  A
C524        H527   1.082       .  S
C525        C526   1.383       .  A
C525        H528   1.082       .  S
N529        N530   1.320       .  A
N529        C533   1.349       .  A
N529       Cu537   2.110       .  S
N530        C531   1.343       .  A
N530       Cu536   2.047       .  S
C531        C532   1.379       .  A
C531        H534   1.082       .  S
C532        C533   1.394       .  A
C533        H535   1.081       .  S
Cu536       N539   2.048       .  S
Cu537       N547   2.111       .  S
Cu538       N540   2.095       .  S
Cu538       N546   2.095       .  S
N539        N540   1.321       .  A
N539        C543   1.340       .  A
N540        C541   1.349       .  A
C541        C542   1.390       .  A
C541        H544   1.082       .  S
C542        C543   1.376       .  A
C542       N1074   1.436       .  S
C543        H545   1.080       .  S
N546        N547   1.326       .  A
N546        C550   1.350       .  A
N547        C548   1.350       .  A
C548        C549   1.386       .  A
C548        H551   1.082       .  S
C549        C550   1.384       .  A
C550        H552   1.082       .  S
N553        N554   1.323       .  A
N553        C557   1.341       .  A
N553       Cu561   2.055       .  S
N554        C555   1.355       .  A
N554       Cu560   2.112       .  S
C555        C556   1.394       .  A
C555        H558   1.082       .  S
C556        C557   1.378       .  A
C556       N1829   1.446   1_455  S
C557        H559   1.081   1_455  S
Cu560       N563   2.114       .  S
Cu561       N571   2.055       .  S
Cu562       N564   2.071       .  S
Cu562       N570   2.069       .  S
N563        N564   1.327       .  A
N563        C567   1.349       .  A
N564        C565   1.347       .  A
C565        C566   1.379       .  A
C565        H568   1.082       .  S
C566        C567   1.387       .  A
C567        H569   1.080       .  S
N570        N571   1.320       .  A
N570        C574   1.347       .  A
N571        C572   1.341       .  A
C572        C573   1.377       .  A
C572        H575   1.082       .  S
C573        C574   1.382       .  A
C573        C688   1.465       .  S
C574        H576   1.082       .  S
N577        N578   1.325       .  A
N577        C581   1.344   1_554  A
N577       Cu585   2.071       .  S
N578        C579   1.356       .  A
N578       Cu584   2.119       .  S
C579        C580   1.390   1_554  A
C579        H582   1.082       .  S
C580        C581   1.377       .  A
C580        N970   1.442       .  S
C581        H859   1.081       .  S
H583        C857   1.081       .  S
Cu584       N587   2.121       .  S
Cu585       N595   2.072       .  S
Cu586       N588   2.078       .  S
Cu586       N594   2.078       .  S
N587        N588   1.325       .  A
N587        C591   1.348   1_455  A
N588        C589   1.351       .  A
C589        C590   1.384   1_455  A
C589        H592   1.077       .  S
C590        C591   1.394       .  A
C590       N1881   1.453       .  S
C591       H1697   1.080       .  S
H593       C1695   1.080       .  S
N594        N595   1.322       .  A
N594        C598   1.347       .  A
N595        C596   1.345       .  A
C596        C597   1.382       .  A
C596        H599   1.082       .  S
C597        C598   1.383       .  A
C597        C650   1.474       .  S
C598        H600   1.081       .  S
N601        N602   1.322       .  A
N601        C605   1.349       .  A
N601       Cu609   2.072       .  S
N602        C603   1.339       .  A
N602       Cu608   2.069       .  S
C603        C604   1.380       .  A
C603        H606   1.082       .  S
C604        C605   1.384       .  A
C604        C726   1.468       .  S
C605        H607   1.082       .  S
Cu608       N611   2.067       .  S
Cu609       N619   2.071       .  S
Cu610       N612   2.108       .  S
Cu610       N618   2.111       .  S
N611        N612   1.319       .  A
N611        C615   1.342       .  A
N612        C613   1.353       .  A
C613        C614   1.397       .  A
C613        H892   1.082       .  S
C614        C615   1.387       .  A
C614       C1043   1.485       .  S
C615        H617   1.082       .  S
H616        C889   1.082       .  S
N618        N619   1.325       .  A
N618        C622   1.346       .  A
N619        C620   1.348       .  A
C620        C621   1.381       .  A
C620        H623   1.081       .  S
C621        C622   1.389       .  A
C621        C657   1.481       .  S
C622        H624   1.082       .  S
N625        N626   1.327       .  A
N625        C629   1.349       .  A
N625       Cu633   2.082       .  S
N626        C627   1.346       .  A
N626       Cu632   2.098       .  S
C627        C628   1.383       .  A
C627        H630   1.081       .  S
C628        C629   1.383       .  A
C628        N687   1.444       .  S
C629        H631   1.082       .  S
Cu632       N635   2.095       .  S
Cu633       N643   2.080       .  S
Cu634       N636   2.048       .  S
Cu634       N642   2.046       .  S
N635        N636   1.321       .  A
N635        C639   1.352       .  A
N636        C637   1.339       .  A
C637        C638   1.379       .  A
C637        H640   1.081       .  S
C638        C639   1.392       .  A
C638        N791   1.446       .  S
C639        H641   1.081       .  S
N642        N643   1.321       .  A
N642        C646   1.341       .  A
N643        C644   1.347       .  A
C644        C645   1.385       .  A
C644        H647   1.082       .  S
C645        C646   1.374       .  A
C645        C733   1.465       .  S
C646        H648   1.082       .  S
N649        C653   1.369       .  A
N649        C650   1.355       .  A
C650        C651   1.378       .  A
C651        C652   1.377       .  A
C651        H654   1.082       .  S
C652        C653   1.387       .  A
C652        H655   1.078       .  S
N656        C660   1.369       .  A
N656        C657   1.360       .  A
C657        C658   1.379       .  A
C658        C659   1.372       .  A
C658        H661   1.082       .  S
C659        C660   1.385       .  A
C659        H662   1.080       .  S
N663        N664   1.327       .  A
N663        C667   1.350       .  A
N663       Cu671   2.110       .  S
N664        C665   1.352       .  A
N664       Cu670   2.094       .  S
C665        C666   1.383       .  A
C665        H668   1.082       .  S
C666        C667   1.385       .  A
C667        H669   1.082       .  S
Cu670       N673   2.095       .  S
Cu671       N681   2.110       .  S
Cu672       N674   2.072       .  S
Cu672       N680   2.071       .  S
N673        N674   1.321       .  A
N673        C677   1.345   1_554  A
N674        C675   1.347       .  A
C675        C952   1.386   1_554  A
C675        H678   1.074       .  S
C676        C951   1.386       .  A
C676        C953   1.393       .  A
C676        N770   1.449       .  S
C677        C952   1.393       .  A
C677        H955   1.079       .  S
H679        C953   1.079       .  S
N680        N681   1.324       .  A
N680        C684   1.347       .  A
N681        C682   1.350       .  A
C682        C683   1.389       .  A
C682        H685   1.082       .  S
C683        C684   1.380       .  A
C683        C778   1.480       .  S
C684        H686   1.082       .  S
N687        C691   1.364       .  A
N687        C964   1.351       .  A
C688        N963   1.351   1_554  A
C688        C689   1.378       .  A
C689        C690   1.376       .  A
C689        H692   1.082       .  S
C690        C967   1.386   1_554  A
C690        H693   1.079       .  S
C691        C966   1.386       .  A
C691        C698   1.487       .  S
N694        C698   1.365       .  A
N694        C695   1.356       .  A
N694        C856   1.442       .  S
C695        C696   1.378       .  A
C695        C704   1.471       .  S
C696        C697   1.370       .  A
C696        H699   1.082       .  S
C697        C698   1.385       .  A
C697        H700   1.081       .  S
N701        N702   1.322       .  A
N701        C705   1.346       .  A
N701       Cu709   2.070       .  S
N702        C703   1.343       .  A
N702       Cu708   2.086       .  S
C703        C704   1.386       .  A
C703        H706   1.082       .  S
C704        C705   1.383       .  A
C705        H707   1.081       .  S
Cu708       N711   2.088       .  S
Cu709       N719   2.070       .  S
Cu710       N712   2.083       .  S
Cu710       N718   2.084       .  S
N711        N712   1.320       .  A
N711        C715   1.347       .  A
N712        C713   1.346       .  A
C713        C714   1.390       .  A
C713        H716   1.082       .  S
C714        C715   1.391       .  A
C714        C788   1.481       .  S
C715       H1821   1.082       .  S
H717       C1819   1.082       .  S
N718        N719   1.323       .  A
N718        C722   1.344       .  A
N719        C720   1.347       .  A
C720        C721   1.382       .  A
C720        H723   1.082       .  S
C721        C722   1.383       .  A
C721        C792   1.473       .  S
C722        H724   1.082       .  S
N725        C729   1.365       .  A
N725        C726   1.359       .  A
N725       C1660   1.446       .  S
C726        C727   1.376       .  A
C727        C728   1.365       .  A
C727        H730   1.082       .  S
C728        C729   1.386       .  A
C728        H731   1.079       .  S
C729        C736   1.485       .  S
N732        C736   1.360       .  A
N732       C1837   1.349       .  A
N732        C752   1.438       .  S
C733       N1836   1.349       .  A
C733        C734   1.377       .  A
C734        C735   1.378       .  A
C734        H737   1.082       .  S
C735       C1840   1.388       .  A
C735        H738   1.081       .  S
C736       C1839   1.388       .  A
N739        N740   1.317       .  A
N739        C743   1.338       .  A
N739       Cu747   2.067       .  S
N740        C741   1.347       .  A
N740       Cu746   2.064       .  S
C741        C742   1.390       .  A
C741        H744   1.082       .  S
C742        C743   1.386       .  A
C742        C764   1.480       .  S
C743        H745   1.074       .  S
Cu746       N749   2.066       .  S
Cu747       N757   2.068       .  S
Cu748       N750   2.099       .  S
Cu748       N756   2.099       .  S
N749        N750   1.326       .  A
N749        C753   1.340       .  A
N750        C751   1.352       .  A
C751        C752   1.386       .  A
C751        H754   1.082       .  S
C752        C753   1.375       .  A
C753        H755   1.081       .  S
N756        N757   1.321       .  A
N756        C760   1.349       .  A
N757        C758   1.344       .  A
C758        C759   1.383       .  A
C758        H761   1.082       .  S
C759        C760   1.392       .  A
C759        C799   1.486       .  S
C760        H762   1.076       .  S
N763        C767   1.357       .  A
N763        C764   1.359       .  A
N763        C774   1.450       .  S
C764        C765   1.379       .  A
C765        C766   1.369       .  A
C765        H768   1.082       .  S
C766        C767   1.389       .  A
C766       H1045   1.082       .  S
C767        C890   1.485       .  S
H769       C1042   1.082   1_554  S
N770        C774   1.368       .  A
N770        C771   1.357       .  A
C771        C772   1.377       .  A
C771        C825   1.485       .  S
C772        C773   1.380       .  A
C772        H775   1.082       .  S
C773        C774   1.386       .  A
C773        H776   1.080       .  S
N777        C781   1.372       .  A
N777        C778   1.357       .  A
N777       C1694   1.453       .  S
C778        C779   1.374       .  A
C779        C780   1.375       .  A
C779        H782   1.082       .  S
C780        C781   1.389       .  A
C780        H783   1.080       .  S
C781        N784   1.451       .  S
N784       C1892   1.357       .  A
N784        C785   1.357       .  A
C785        C786   1.377       .  A
C785        C808   1.480       .  S
C786        C787   1.370       .  A
C786        H789   1.082       .  S
C787       C1892   1.389       .  A
C787       H1894   1.083       .  S
C788       N1888   1.357   1_455  A
C788       C1891   1.389       .  A
H790       C1891   1.083       .  S
N791        C795   1.364       .  A
C792        C793   1.376       .  A
C793        C794   1.370       .  A
C793        H796   1.082       .  S
C794        H797   1.080       .  S
C795        C802   1.486       .  S
N798        C802   1.359       .  A
N798        C799   1.358       .  A
C799        C800   1.384       .  A
C800        C801   1.379       .  A
C800        H803   1.082       .  S
C801        C802   1.383       .  A
C801        H804   1.082       .  S
N805        N806   1.320       .  A
N805        C809   1.349       .  A
N805       Cu813   2.110       .  S
N806        C807   1.343       .  A
N806       Cu812   2.047       .  S
C807        C808   1.379       .  A
C807        H810   1.082       .  S
C808        C809   1.394       .  A
C809        H811   1.081       .  S
Cu812       N815   2.048       .  S
Cu813       N823   2.111       .  S
Cu814       N816   2.095       .  S
Cu814       N822   2.095       .  S
N815        N816   1.321       .  A
N815        C819   1.340       .  A
N816        C817   1.349       .  A
C817        C818   1.390   1_565  A
C817        H820   1.082       .  S
C818        C819   1.376   1_545  A
C819        H821   1.080   1_565  S
N822        N823   1.326       .  A
N822        C826   1.350       .  A
N823        C824   1.350       .  A
C824        C825   1.386       .  A
C824        H827   1.082       .  S
C825        C826   1.384       .  A
C826        H828   1.082       .  S
N829        N830   1.323       .  A
N829        C833   1.341       .  A
N829       Cu837   2.055       .  S
N830        C831   1.355       .  A
N830       Cu836   2.112       .  S
C831        C832   1.394       .  A
C831        H834   1.082       .  S
C832        C833   1.378       .  A
C832       N2105   1.446   1_455  S
C833        H835   1.081   1_455  S
Cu836       N839   2.114       .  S
Cu837       N847   2.055       .  S
Cu838       N840   2.071       .  S
Cu838       N846   2.069       .  S
N839        N840   1.327       .  A
N839        C843   1.349       .  A
N840        C841   1.347       .  A
C841        C842   1.379       .  A
C841        H844   1.082       .  S
C842        C843   1.387       .  A
C843        H845   1.080       .  S
N846        N847   1.320       .  A
N846        C850   1.347       .  A
N847        C848   1.341       .  A
C848        C849   1.377       .  A
C848        H851   1.082       .  S
C849        C850   1.382       .  A
C849        C964   1.465       .  S
C850        H852   1.082       .  S
N853        N854   1.325       .  A
N853        C857   1.344       .  A
N853       Cu861   2.071       .  S
N854        C855   1.356       .  A
N854       Cu860   2.119       .  S
C855        C856   1.390       .  A
C855        H858   1.082       .  S
C856        C857   1.377       .  A
Cu860       N863   2.121       .  S
Cu861       N871   2.072       .  S
Cu862       N864   2.078       .  S
Cu862       N870   2.078       .  S
N863        N864   1.325       .  A
N863        C867   1.348   1_455  A
N864        C865   1.351       .  A
C865        C866   1.384   1_455  A
C865        H868   1.077       .  S
C866        C867   1.394       .  A
C866       N2157   1.453       .  S
C867       H1973   1.080       .  S
H869       C1971   1.080       .  S
N870        N871   1.322       .  A
N870        C874   1.347       .  A
N871        C872   1.345       .  A
C872        C873   1.382       .  A
C872        H875   1.082       .  S
C873        C874   1.383       .  A
C873        C926   1.474       .  S
C874        H876   1.081       .  S
N877        N878   1.322       .  A
N877        C881   1.349       .  A
N877       Cu885   2.072       .  S
N878        C879   1.339       .  A
N878       Cu884   2.069       .  S
C879        C880   1.380       .  A
C879        H882   1.082       .  S
C880        C881   1.384       .  A
C880       C1002   1.468       .  S
C881        H883   1.082       .  S
Cu884       N887   2.067       .  S
Cu885       N895   2.071       .  S
Cu886       N888   2.108       .  S
Cu886       N894   2.111       .  S
N887        N888   1.319       .  A
N887        C891   1.342       .  A
N888        C889   1.353       .  A
C889        C890   1.397       .  A
C890        C891   1.387       .  A
C891        H893   1.082       .  S
N894        N895   1.325       .  A
N894        C898   1.346       .  A
N895        C896   1.348       .  A
C896        C897   1.381       .  A
C896        H899   1.081       .  S
C897        C898   1.389       .  A
C897        C933   1.481       .  S
C898        H900   1.082       .  S
N901        N902   1.327       .  A
N901        C905   1.349       .  A
N901       Cu909   2.082       .  S
N902        C903   1.346       .  A
N902       Cu908   2.098       .  S
C903        C904   1.383       .  A
C903        H906   1.081       .  S
C904        C905   1.383       .  A
C904        N963   1.444       .  S
C905        H907   1.082       .  S
Cu908       N911   2.095       .  S
Cu909       N919   2.080       .  S
Cu910       N912   2.048       .  S
Cu910       N918   2.046       .  S
N911        N912   1.321       .  A
N911        C915   1.352       .  A
N912        C913   1.339       .  A
C913        C914   1.379       .  A
C913        H916   1.081       .  S
C914        C915   1.392       .  A
C914       N1067   1.446       .  S
C915        H917   1.081       .  S
N918        N919   1.321       .  A
N918        C922   1.341       .  A
N919        C920   1.347       .  A
C920        C921   1.385       .  A
C920        H923   1.082       .  S
C921        C922   1.374       .  A
C921       C1009   1.465       .  S
C922        H924   1.082       .  S
N925        C929   1.369       .  A
N925        C926   1.355       .  A
C926        C927   1.378       .  A
C927        C928   1.377       .  A
C927        H930   1.082       .  S
C928        C929   1.387       .  A
C928        H931   1.078       .  S
N932        C936   1.369       .  A
N932        C933   1.360       .  A
C933        C934   1.379       .  A
C934        C935   1.372       .  A
C934        H937   1.082       .  S
C935        C936   1.385       .  A
C935        H938   1.080       .  S
N939        N940   1.327       .  A
N939        C943   1.350       .  A
N939       Cu947   2.110       .  S
N940        C941   1.352       .  A
N940       Cu946   2.094       .  S
C941        C942   1.383       .  A
C941        H944   1.082       .  S
C942        C943   1.385       .  A
C943        H945   1.082       .  S
Cu946       N949   2.095       .  S
Cu947       N957   2.110       .  S
Cu948       N950   2.072       .  S
Cu948       N956   2.071       .  S
N949        N950   1.321       .  A
N949        C953   1.345       .  A
N950        C951   1.347       .  A
C951        H954   1.074       .  S
C952       N1046   1.449       .  S
N956        N957   1.324       .  A
N956        C960   1.347       .  A
N957        C958   1.350       .  A
C958        C959   1.389       .  A
C958        H961   1.082       .  S
C959        C960   1.380       .  A
C959       C1054   1.480       .  S
C960        H962   1.082       .  S
N963        C967   1.364       .  A
C964        C965   1.378       .  A
C965        C966   1.376       .  A
C965        H968   1.082       .  S
C966        H969   1.079       .  S
C967        C974   1.487       .  S
N970        C974   1.365       .  A
N970        C971   1.356       .  A
C971        C972   1.378       .  A
C971        C980   1.471       .  S
C972        C973   1.370       .  A
C972        H975   1.082       .  S
C973        C974   1.385       .  A
C973        H976   1.081       .  S
N977        N978   1.322       .  A
N977        C981   1.346       .  A
N977       Cu985   2.070       .  S
N978        C979   1.343       .  A
N978       Cu984   2.086       .  S
C979        C980   1.386       .  A
C979        H982   1.082       .  S
C980        C981   1.383       .  A
C981        H983   1.081       .  S
Cu984       N987   2.088       .  S
Cu985       N995   2.070       .  S
Cu986       N988   2.083       .  S
Cu986       N994   2.084       .  S
N987        N988   1.320       .  A
N987        C991   1.347       .  A
N988        C989   1.346       .  A
C989        C990   1.390       .  A
C989        H992   1.082       .  S
C990        C991   1.391       .  A
C990       C1064   1.481       .  S
C991       H2097   1.082       .  S
H993       C2095   1.082       .  S
N994        N995   1.323       .  A
N994        C998   1.344       .  A
N995        C996   1.347       .  A
C996        C997   1.381       .  A
C996        H999   1.082       .  S
C997        C998   1.383       .  A
C997       C1068   1.473       .  S
C998       H1000   1.082       .  S
N1001      C1005   1.365       .  A
N1001      C1002   1.359       .  A
N1001      C1936   1.446       .  S
C1002      C1003   1.376       .  A
C1003      C1004   1.365       .  A
C1003      H1006   1.082       .  S
C1004      C1005   1.386       .  A
C1004      H1007   1.079       .  S
C1005      C1012   1.485       .  S
N1008      C1012   1.360       .  A
N1008      C2113   1.349       .  A
N1008      C1028   1.438       .  S
C1009      N2112   1.349       .  A
C1009      C1010   1.377       .  A
C1010      C1011   1.378       .  A
C1010      H1013   1.082       .  S
C1011      C2116   1.388       .  A
C1011      H1014   1.081       .  S
C1012      C2115   1.388       .  A
N1015      N1016   1.317       .  A
N1015      C1019   1.338       .  A
N1015     Cu1023   2.067       .  S
N1016      C1017   1.347       .  A
N1016     Cu1022   2.064       .  S
C1017      C1018   1.390       .  A
C1017      H1020   1.082       .  S
C1018      C1019   1.386       .  A
C1018      C1040   1.480       .  S
C1019      H1021   1.074       .  S
Cu1022     N1025   2.066       .  S
Cu1023     N1033   2.068       .  S
Cu1024     N1026   2.099       .  S
Cu1024     N1032   2.099       .  S
N1025      N1026   1.326       .  A
N1025      C1029   1.340       .  A
N1026      C1027   1.352       .  A
C1027      C1028   1.386       .  A
C1027      H1030   1.082       .  S
C1028      C1029   1.375       .  A
C1029      H1031   1.081       .  S
N1032      N1033   1.321       .  A
N1032      C1036   1.349       .  A
N1033      C1034   1.344       .  A
C1034      C1035   1.383       .  A
C1034      H1037   1.082       .  S
C1035      C1036   1.392       .  A
C1035      C1075   1.486       .  S
C1036      H1038   1.076       .  S
N1039      C1043   1.357   1_556  A
N1039      C1040   1.359       .  A
N1039      C1050   1.450       .  S
C1040      C1041   1.379       .  A
C1041      C1042   1.369       .  A
C1041      H1044   1.082       .  S
C1042      C1043   1.389   1_556  A
N1046      C1050   1.368       .  A
N1046      C1047   1.357       .  A
C1047      C1048   1.377       .  A
C1047      C1101   1.485       .  S
C1048      C1049   1.380       .  A
C1048      H1051   1.082       .  S
C1049      C1050   1.386       .  A
C1049      H1052   1.080       .  S
N1053      C1057   1.372       .  A
N1053      C1054   1.357       .  A
N1053      C1970   1.453       .  S
C1054      C1055   1.374       .  A
C1055      C1056   1.375       .  A
C1055      H1058   1.082       .  S
C1056      C1057   1.389       .  A
C1056      H1059   1.080       .  S
C1057      N1060   1.451       .  S
N1060      C2168   1.357       .  A
N1060      C1061   1.357       .  A
C1061      C1062   1.377       .  A
C1061      C1084   1.480       .  S
C1062      C1063   1.370       .  A
C1062      H1065   1.082       .  S
C1063      C2168   1.389       .  A
C1063      H2170   1.083       .  S
C1064      N2164   1.357   1_455  A
C1064      C2167   1.389       .  A
H1066      C2167   1.083       .  S
N1067      C1071   1.364       .  A
C1068      C1069   1.376       .  A
C1069      C1070   1.370       .  A
C1069      H1072   1.082       .  S
C1070      H1073   1.080       .  S
C1071      C1078   1.486       .  S
N1074      C1078   1.359       .  A
N1074      C1075   1.358       .  A
C1075      C1076   1.384       .  A
C1076      C1077   1.379       .  A
C1076      H1079   1.082       .  S
C1077      C1078   1.383       .  A
C1077      H1080   1.082       .  S
N1081      N1082   1.320       .  A
N1081      C1085   1.349       .  A
N1081     Cu1089   2.110       .  S
N1082      C1083   1.343       .  A
N1082     Cu1088   2.047       .  S
C1083      C1084   1.379       .  A
C1083      H1086   1.082       .  S
C1084      C1085   1.394       .  A
C1085      H1087   1.081       .  S
Cu1088     N1091   2.048       .  S
Cu1089     N1099   2.111       .  S
Cu1090     N1092   2.095       .  S
Cu1090     N1098   2.095       .  S
N1091      N1092   1.321       .  A
N1091      C1095   1.340       .  A
N1092      C1093   1.349       .  A
C1093      C1094   1.390   1_565  A
C1093      H1096   1.082       .  S
C1094      C1095   1.376   1_545  A
C1095      H1097   1.080   1_565  S
N1098      N1099   1.326       .  A
N1098      C1102   1.350       .  A
N1099      C1100   1.350       .  A
C1100      C1101   1.386       .  A
C1100      H1103   1.082       .  S
C1101      C1102   1.384       .  A
C1102      H1104   1.082       .  S
N1105      N1106   1.323       .  A
N1105      C1109   1.341       .  A
N1105     Cu1113   2.055       .  S
N1106      C1107   1.355       .  A
N1106     Cu1112   2.112       .  S
C1107      C1108   1.394       .  A
C1107      H1110   1.082       .  S
C1108      C1109   1.378       .  A
C1109      H1111   1.081       .  S
Cu1112     N1115   2.114       .  S
Cu1113     N1123   2.055       .  S
Cu1114     N1116   2.071       .  S
Cu1114     N1122   2.069       .  S
N1115      N1116   1.327       .  A
N1115      C1119   1.349       .  A
N1116      C1117   1.347       .  A
C1117      C1118   1.379       .  A
C1117      H1120   1.082       .  S
C1118      C1119   1.387       .  A
C1118      N1753   1.444   1_545  S
C1119      H1121   1.080   1_545  S
N1122      N1123   1.320       .  A
N1122      C1126   1.347       .  A
N1123      C1124   1.341       .  A
C1124      C1125   1.377       .  A
C1124      H1127   1.082       .  S
C1125      C1126   1.382       .  A
C1125      C1240   1.465       .  S
C1126      H1128   1.082       .  S
N1129      N1130   1.325       .  A
N1129      C1133   1.344   1_554  A
N1129     Cu1137   2.071       .  S
N1130      C1131   1.356       .  A
N1130     Cu1136   2.119       .  S
C1131      C1132   1.390   1_554  A
C1131      H1134   1.082       .  S
C1132      C1133   1.377       .  A
C1132      N1522   1.442       .  S
C1133      H1411   1.081       .  S
H1135      C1409   1.081       .  S
Cu1136     N1139   2.121       .  S
Cu1137     N1147   2.072       .  S
Cu1138     N1140   2.078       .  S
Cu1138     N1146   2.078       .  S
N1139      N1140   1.325       .  A
N1139      C1143   1.348       .  A
N1140      C1141   1.351       .  A
C1141      C1142   1.384       .  A
C1141      H1144   1.077       .  S
C1142      C1143   1.394       .  A
N1146      N1147   1.322       .  A
N1146      C1150   1.347       .  A
N1147      C1148   1.345       .  A
C1148      C1149   1.382       .  A
C1148      H1151   1.082       .  S
C1149      C1150   1.383       .  A
C1149      C1202   1.474       .  S
C1150      H1152   1.081       .  S
N1153      N1154   1.322       .  A
N1153      C1157   1.349       .  A
N1153     Cu1161   2.072       .  S
N1154      C1155   1.339       .  A
N1154     Cu1160   2.069       .  S
C1155      C1156   1.380       .  A
C1155      H1158   1.082       .  S
C1156      C1157   1.384       .  A
C1156      C1278   1.468       .  S
C1157      H1159   1.082       .  S
Cu1160     N1163   2.067       .  S
Cu1161     N1171   2.071       .  S
Cu1162     N1164   2.108       .  S
Cu1162     N1170   2.111       .  S
N1163      N1164   1.319       .  A
N1163      C1167   1.342       .  A
N1164      C1165   1.353       .  A
C1165      C1166   1.397       .  A
C1165      H1444   1.082       .  S
C1166      C1167   1.387       .  A
C1166      C1595   1.485       .  S
C1167      H1169   1.082       .  S
H1168      C1441   1.082       .  S
N1170      N1171   1.325       .  A
N1170      C1174   1.346       .  A
N1171      C1172   1.348       .  A
C1172      C1173   1.381       .  A
C1172      H1175   1.081       .  S
C1173      C1174   1.389       .  A
C1173      C1209   1.481       .  S
C1174      H1176   1.082       .  S
N1177      N1178   1.327       .  A
N1177      C1181   1.349       .  A
N1177     Cu1185   2.082       .  S
N1178      C1179   1.346       .  A
N1178     Cu1184   2.098       .  S
C1179      C1180   1.383       .  A
C1179      H1182   1.081       .  S
C1180      C1181   1.383       .  A
C1180      N1239   1.444       .  S
C1181      H1183   1.082       .  S
Cu1184     N1187   2.095       .  S
Cu1185     N1195   2.080       .  S
Cu1186     N1188   2.048       .  S
Cu1186     N1194   2.046       .  S
N1187      N1188   1.321       .  A
N1187      C1191   1.352       .  A
N1188      C1189   1.339       .  A
C1189      C1190   1.379       .  A
C1189      H1192   1.081       .  S
C1190      C1191   1.392       .  A
C1190      N1343   1.446   1_545  S
C1191      H1193   1.081       .  S
N1194      N1195   1.321       .  A
N1194      C1198   1.341       .  A
N1195      C1196   1.347       .  A
C1196      C1197   1.385       .  A
C1196      H1199   1.082       .  S
C1197      C1198   1.374       .  A
C1197      C1285   1.465       .  S
C1198      H1200   1.082       .  S
N1201      C1205   1.369       .  A
N1201      C1202   1.355       .  A
N1201      C1670   1.444       .  S
C1202      C1203   1.378       .  A
C1203      C1204   1.377       .  A
C1203      H1206   1.082       .  S
C1204      C1205   1.387       .  A
C1204      H1207   1.078       .  S
C1205      C1764   1.498       .  S
N1208      C1212   1.369       .  A
N1208      C1209   1.360       .  A
N1208      C1770   1.443   1_545  S
C1209      C1210   1.379       .  A
C1210      C1211   1.372       .  A
C1210      H1213   1.082       .  S
C1211      C1212   1.385       .  A
C1211      H1214   1.080       .  S
C1212      C1757   1.498   1_545  S
N1215      N1216   1.327       .  A
N1215      C1219   1.350       .  A
N1215     Cu1223   2.110       .  S
N1216      C1217   1.352       .  A
N1216     Cu1222   2.094       .  S
C1217      C1218   1.383       .  A
C1217      H1220   1.082       .  S
C1218      C1219   1.385       .  A
C1218      N1760   1.443       .  S
C1219      H1221   1.082       .  S
Cu1222     N1225   2.095       .  S
Cu1223     N1233   2.110       .  S
Cu1224     N1226   2.072       .  S
Cu1224     N1232   2.071       .  S
N1225      N1226   1.321       .  A
N1225      C1229   1.345   1_554  A
N1226      C1227   1.347       .  A
C1227      C1504   1.386   1_554  A
C1227      H1230   1.074       .  S
C1228      C1503   1.386       .  A
C1228      C1505   1.393       .  A
C1228      N1322   1.449       .  S
C1229      C1504   1.393       .  A
C1229      H1507   1.079       .  S
H1231      C1505   1.079       .  S
N1232      N1233   1.324       .  A
N1232      C1236   1.347       .  A
N1233      C1234   1.350       .  A
C1234      C1235   1.389       .  A
C1234      H1237   1.082       .  S
C1235      C1236   1.380       .  A
C1235      C1330   1.480       .  S
C1236      H1238   1.082       .  S
N1239      C1243   1.364       .  A
N1239      C1516   1.351       .  A
C1240      N1515   1.351   1_554  A
C1240      C1241   1.378       .  A
C1241      C1242   1.376       .  A
C1241      H1244   1.082       .  S
C1242      C1519   1.386   1_554  A
C1242      H1245   1.079       .  S
C1243      C1518   1.386       .  A
C1243      C1250   1.487       .  S
N1246      C1250   1.365       .  A
N1246      C1247   1.356       .  A
N1246      C1408   1.442       .  S
C1247      C1248   1.378       .  A
C1247      C1256   1.471       .  S
C1248      C1249   1.370       .  A
C1248      H1251   1.082       .  S
C1249      C1250   1.385       .  A
C1249      H1252   1.081       .  S
N1253      N1254   1.322       .  A
N1253      C1257   1.346       .  A
N1253     Cu1261   2.070       .  S
N1254      C1255   1.343       .  A
N1254     Cu1260   2.086       .  S
C1255      C1256   1.386       .  A
C1255      H1258   1.082       .  S
C1256      C1257   1.383       .  A
C1257      H1259   1.081       .  S
Cu1260     N1263   2.088       .  S
Cu1261     N1271   2.070       .  S
Cu1262     N1264   2.083       .  S
Cu1262     N1270   2.084       .  S
N1263      N1264   1.320       .  A
N1263      C1267   1.347       .  A
N1264      C1265   1.346       .  A
C1265      C1266   1.390       .  A
C1265      H1268   1.082       .  S
C1266      C1267   1.391       .  A
C1266      C1340   1.481       .  S
N1270      N1271   1.323       .  A
N1270      C1274   1.344       .  A
N1271      C1272   1.347       .  A
C1272      C1273   1.382       .  A
C1272      H1275   1.082       .  S
C1273      C1274   1.383       .  A
C1273      C1344   1.473       .  S
C1274      H1276   1.082       .  S
N1277      C1281   1.365       .  A
N1277      C1278   1.359       .  A
C1278      C1279   1.376       .  A
C1279      C1280   1.365       .  A
C1279      H1282   1.082       .  S
C1280      C1281   1.386       .  A
C1280      H1283   1.079       .  S
C1281      C1288   1.485   1_655  S
N1284      C1288   1.360       .  A
N1284      C1304   1.438   1_455  S
C1285      C1286   1.377       .  A
C1286      C1287   1.378       .  A
C1286      H1289   1.082       .  S
C1287      H1290   1.081       .  S
N1291      N1292   1.317       .  A
N1291      C1295   1.338       .  A
N1291     Cu1299   2.067       .  S
N1292      C1293   1.347       .  A
N1292     Cu1298   2.064       .  S
C1293      C1294   1.390       .  A
C1293      H1296   1.082       .  S
C1294      C1295   1.386       .  A
C1294      C1316   1.480       .  S
C1295      H1297   1.074       .  S
Cu1298     N1301   2.066       .  S
Cu1299     N1309   2.068       .  S
Cu1300     N1302   2.099       .  S
Cu1300     N1308   2.099       .  S
N1301      N1302   1.326       .  A
N1301      C1305   1.340       .  A
N1302      C1303   1.352       .  A
C1303      C1304   1.386       .  A
C1303      H1306   1.082       .  S
C1304      C1305   1.375       .  A
C1305      H1307   1.081       .  S
N1308      N1309   1.321       .  A
N1308      C1312   1.349       .  A
N1309      C1310   1.344       .  A
C1310      C1311   1.383       .  A
C1310      H1313   1.082       .  S
C1311      C1312   1.392       .  A
C1311      C1351   1.486       .  S
C1312      H1314   1.076       .  S
N1315      C1319   1.357       .  A
N1315      C1316   1.359       .  A
N1315      C1326   1.450       .  S
C1316      C1317   1.379       .  A
C1317      C1318   1.369       .  A
C1317      H1320   1.082       .  S
C1318      C1319   1.389       .  A
C1318      H1597   1.082       .  S
C1319      C1442   1.485       .  S
H1321      C1594   1.082   1_554  S
N1322      C1326   1.368       .  A
N1322      C1323   1.357       .  A
C1323      C1324   1.377       .  A
C1323      C1377   1.485       .  S
C1324      C1325   1.380       .  A
C1324      H1327   1.082       .  S
C1325      C1326   1.386       .  A
C1325      H1328   1.080       .  S
N1329      C1333   1.372       .  A
N1329      C1330   1.357       .  A
C1330      C1331   1.374       .  A
C1331      C1332   1.375       .  A
C1331      H1334   1.082       .  S
C1332      C1333   1.389       .  A
C1332      H1335   1.080       .  S
C1333      N1336   1.451       .  S
N1336      C1337   1.357       .  A
C1337      C1338   1.377       .  A
C1337      C1360   1.480       .  S
C1338      C1339   1.370   1_655  A
C1338      H1341   1.082       .  S
N1343      C1347   1.364   1_565  A
N1343      C1896   1.361       .  A
C1344      N1895   1.361       .  A
C1344      C1345   1.376       .  A
C1345      C1346   1.370       .  A
C1345      H1348   1.082       .  S
C1346      C1899   1.385       .  A
C1346      H1349   1.080       .  S
C1347      C1898   1.385   1_545  A
C1347      C1354   1.486       .  S
N1350      C1354   1.359       .  A
N1350      C1351   1.358       .  A
N1350      C1922   1.436       .  S
C1351      C1352   1.384       .  A
C1352      C1353   1.379       .  A
C1352      H1355   1.082       .  S
C1353      C1354   1.383       .  A
C1353      H1356   1.082       .  S
N1357      N1358   1.320       .  A
N1357      C1361   1.349       .  A
N1357     Cu1365   2.110       .  S
N1358      C1359   1.343       .  A
N1358     Cu1364   2.047       .  S
C1359      C1360   1.379       .  A
C1359      H1362   1.082       .  S
C1360      C1361   1.394       .  A
C1361      H1363   1.081       .  S
Cu1364     N1367   2.048       .  S
Cu1365     N1375   2.111       .  S
Cu1366     N1368   2.095       .  S
Cu1366     N1374   2.095       .  S
N1367      N1368   1.321       .  A
N1367      C1371   1.340       .  A
N1368      C1369   1.349       .  A
C1369      C1370   1.390       .  A
C1369      H1372   1.082       .  S
C1370      C1371   1.376       .  A
C1370      N1902   1.436       .  S
C1371      H1373   1.080       .  S
N1374      N1375   1.326       .  A
N1374      C1378   1.350       .  A
N1375      C1376   1.350       .  A
C1376      C1377   1.386       .  A
C1376      H1379   1.082       .  S
C1377      C1378   1.384       .  A
C1378      H1380   1.082       .  S
N1381      N1382   1.323       .  A
N1381      C1385   1.341       .  A
N1381     Cu1389   2.055       .  S
N1382      C1383   1.355       .  A
N1382     Cu1388   2.112       .  S
C1383      C1384   1.394       .  A
C1383      H1386   1.082       .  S
C1384      C1385   1.378       .  A
C1385      H1387   1.081       .  S
Cu1388     N1391   2.114       .  S
Cu1389     N1399   2.055       .  S
Cu1390     N1392   2.071       .  S
Cu1390     N1398   2.069       .  S
N1391      N1392   1.327       .  A
N1391      C1395   1.349       .  A
N1392      C1393   1.347       .  A
C1393      C1394   1.379       .  A
C1393      H1396   1.082       .  S
C1394      C1395   1.387       .  A
C1394      N2029   1.444   1_545  S
C1395      H1397   1.080   1_545  S
N1398      N1399   1.320       .  A
N1398      C1402   1.347       .  A
N1399      C1400   1.341       .  A
C1400      C1401   1.377       .  A
C1400      H1403   1.082       .  S
C1401      C1402   1.382       .  A
C1401      C1516   1.465       .  S
C1402      H1404   1.082       .  S
N1405      N1406   1.325       .  A
N1405      C1409   1.344       .  A
N1405     Cu1413   2.071       .  S
N1406      C1407   1.356       .  A
N1406     Cu1412   2.119       .  S
C1407      C1408   1.390       .  A
C1407      H1410   1.082       .  S
C1408      C1409   1.377       .  A
Cu1412     N1415   2.121       .  S
Cu1413     N1423   2.072       .  S
Cu1414     N1416   2.078       .  S
Cu1414     N1422   2.078       .  S
N1415      N1416   1.325       .  A
N1415      C1419   1.348       .  A
N1416      C1417   1.351       .  A
C1417      C1418   1.384       .  A
C1417      H1420   1.077       .  S
C1418      C1419   1.394       .  A
N1422      N1423   1.322       .  A
N1422      C1426   1.347       .  A
N1423      C1424   1.345       .  A
C1424      C1425   1.382       .  A
C1424      H1427   1.082       .  S
C1425      C1426   1.383       .  A
C1425      C1478   1.474       .  S
C1426      H1428   1.081       .  S
N1429      N1430   1.322       .  A
N1429      C1433   1.349       .  A
N1429     Cu1437   2.072       .  S
N1430      C1431   1.339       .  A
N1430     Cu1436   2.069       .  S
C1431      C1432   1.380       .  A
C1431      H1434   1.082       .  S
C1432      C1433   1.384       .  A
C1432      C1554   1.468       .  S
C1433      H1435   1.082       .  S
Cu1436     N1439   2.067       .  S
Cu1437     N1447   2.071       .  S
Cu1438     N1440   2.108       .  S
Cu1438     N1446   2.110       .  S
N1439      N1440   1.319       .  A
N1439      C1443   1.342       .  A
N1440      C1441   1.353       .  A
C1441      C1442   1.397       .  A
C1442      C1443   1.387       .  A
C1443      H1445   1.082       .  S
N1446      N1447   1.325       .  A
N1446      C1450   1.346       .  A
N1447      C1448   1.348       .  A
C1448      C1449   1.381       .  A
C1448      H1451   1.081       .  S
C1449      C1450   1.389       .  A
C1449      C1485   1.481       .  S
C1450      H1452   1.082       .  S
N1453      N1454   1.327       .  A
N1453      C1457   1.349       .  A
N1453     Cu1461   2.082       .  S
N1454      C1455   1.346       .  A
N1454     Cu1460   2.098       .  S
C1455      C1456   1.383       .  A
C1455      H1458   1.081       .  S
C1456      C1457   1.383       .  A
C1456      N1515   1.444       .  S
C1457      H1459   1.082       .  S
Cu1460     N1463   2.095       .  S
Cu1461     N1471   2.080       .  S
Cu1462     N1464   2.048       .  S
Cu1462     N1470   2.046       .  S
N1463      N1464   1.321       .  A
N1463      C1467   1.352       .  A
N1464      C1465   1.339       .  A
C1465      C1466   1.379       .  A
C1465      H1468   1.081       .  S
C1466      C1467   1.392       .  A
C1466      N1619   1.446   1_545  S
C1467      H1469   1.081       .  S
N1470      N1471   1.321       .  A
N1470      C1474   1.341       .  A
N1471      C1472   1.347       .  A
C1472      C1473   1.385       .  A
C1472      H1475   1.082       .  S
C1473      C1474   1.374       .  A
C1473      C1561   1.465       .  S
C1474      H1476   1.082       .  S
N1477      C1481   1.369       .  A
N1477      C1478   1.355       .  A
N1477      C1946   1.444       .  S
C1478      C1479   1.378       .  A
C1479      C1480   1.377       .  A
C1479      H1482   1.082       .  S
C1480      C1481   1.387       .  A
C1480      H1483   1.078       .  S
C1481      C2040   1.498       .  S
N1484      C1488   1.369       .  A
N1484      C1485   1.360       .  A
N1484      C2046   1.443   1_545  S
C1485      C1486   1.379       .  A
C1486      C1487   1.372       .  A
C1486      H1489   1.082       .  S
C1487      C1488   1.385       .  A
C1487      H1490   1.080       .  S
C1488      C2033   1.498   1_545  S
N1491      N1492   1.327       .  A
N1491      C1495   1.350       .  A
N1491     Cu1499   2.110       .  S
N1492      C1493   1.352       .  A
N1492     Cu1498   2.094       .  S
C1493      C1494   1.383       .  A
C1493      H1496   1.082       .  S
C1494      C1495   1.385       .  A
C1494      N2036   1.443       .  S
C1495      H1497   1.082       .  S
Cu1498     N1501   2.095       .  S
Cu1499     N1509   2.110       .  S
Cu1500     N1502   2.072       .  S
Cu1500     N1508   2.071       .  S
N1501      N1502   1.321       .  A
N1501      C1505   1.345       .  A
N1502      C1503   1.347       .  A
C1503      H1506   1.074       .  S
C1504      N1598   1.449       .  S
N1508      N1509   1.324       .  A
N1508      C1512   1.347       .  A
N1509      C1510   1.350       .  A
C1510      C1511   1.389       .  A
C1510      H1513   1.082       .  S
C1511      C1512   1.380       .  A
C1511      C1606   1.480       .  S
C1512      H1514   1.082       .  S
N1515      C1519   1.364       .  A
C1516      C1517   1.378       .  A
C1517      C1518   1.376       .  A
C1517      H1520   1.082       .  S
C1518      H1521   1.079       .  S
C1519      C1526   1.487       .  S
N1522      C1526   1.365       .  A
N1522      C1523   1.356       .  A
C1523      C1524   1.378       .  A
C1523      C1532   1.471       .  S
C1524      C1525   1.370       .  A
C1524      H1527   1.082       .  S
C1525      C1526   1.385       .  A
C1525      H1528   1.081       .  S
N1529      N1530   1.322       .  A
N1529      C1533   1.346       .  A
N1529     Cu1537   2.070       .  S
N1530      C1531   1.343       .  A
N1530     Cu1536   2.086       .  S
C1531      C1532   1.386       .  A
C1531      H1534   1.082       .  S
C1532      C1533   1.383       .  A
C1533      H1535   1.081       .  S
Cu1536     N1539   2.088       .  S
Cu1537     N1547   2.070       .  S
Cu1538     N1540   2.083       .  S
Cu1538     N1546   2.084       .  S
N1539      N1540   1.320       .  A
N1539      C1543   1.347       .  A
N1540      C1541   1.346       .  A
C1541      C1542   1.390       .  A
C1541      H1544   1.082       .  S
C1542      C1543   1.391       .  A
C1542      C1616   1.481       .  S
N1546      N1547   1.323       .  A
N1546      C1550   1.344       .  A
N1547      C1548   1.347       .  A
C1548      C1549   1.381       .  A
C1548      H1551   1.082       .  S
C1549      C1550   1.383       .  A
C1549      C1620   1.473       .  S
C1550      H1552   1.082       .  S
N1553      C1557   1.365       .  A
N1553      C1554   1.359       .  A
C1554      C1555   1.376       .  A
C1555      C1556   1.365       .  A
C1555      H1558   1.082       .  S
C1556      C1557   1.386       .  A
C1556      H1559   1.079       .  S
C1557      C1564   1.485   1_655  S
N1560      C1564   1.360       .  A
N1560      C1580   1.438   1_455  S
C1561      C1562   1.377       .  A
C1562      C1563   1.378       .  A
C1562      H1565   1.082       .  S
C1563      H1566   1.081       .  S
N1567      N1568   1.317       .  A
N1567      C1571   1.338       .  A
N1567     Cu1575   2.067       .  S
N1568      C1569   1.347       .  A
N1568     Cu1574   2.064       .  S
C1569      C1570   1.390       .  A
C1569      H1572   1.082       .  S
C1570      C1571   1.386       .  A
C1570      C1592   1.480       .  S
C1571      H1573   1.074       .  S
Cu1574     N1577   2.066       .  S
Cu1575     N1585   2.068       .  S
Cu1576     N1578   2.099       .  S
Cu1576     N1584   2.099       .  S
N1577      N1578   1.326       .  A
N1577      C1581   1.340       .  A
N1578      C1579   1.352       .  A
C1579      C1580   1.386       .  A
C1579      H1582   1.082       .  S
C1580      C1581   1.375       .  A
C1581      H1583   1.081       .  S
N1584      N1585   1.321       .  A
N1584      C1588   1.349       .  A
N1585      C1586   1.344       .  A
C1586      C1587   1.383       .  A
C1586      H1589   1.082       .  S
C1587      C1588   1.392       .  A
C1587      C1627   1.486       .  S
C1588      H1590   1.076       .  S
N1591      C1595   1.357   1_556  A
N1591      C1592   1.359       .  A
N1591      C1602   1.450       .  S
C1592      C1593   1.379       .  A
C1593      C1594   1.369       .  A
C1593      H1596   1.082       .  S
C1594      C1595   1.389   1_556  A
N1598      C1602   1.368       .  A
N1598      C1599   1.357       .  A
C1599      C1600   1.377       .  A
C1599      C1653   1.485       .  S
C1600      C1601   1.380       .  A
C1600      H1603   1.082       .  S
C1601      C1602   1.386       .  A
C1601      H1604   1.080       .  S
N1605      C1609   1.372       .  A
N1605      C1606   1.357       .  A
C1606      C1607   1.374       .  A
C1607      C1608   1.375       .  A
C1607      H1610   1.082       .  S
C1608      C1609   1.389       .  A
C1608      H1611   1.080       .  S
C1609      N1612   1.451       .  S
N1612      C1613   1.357       .  A
C1613      C1614   1.377       .  A
C1613      C1636   1.480       .  S
C1614      C1615   1.370   1_655  A
C1614      H1617   1.082       .  S
N1619      C1623   1.364   1_565  A
N1619      C2172   1.361       .  A
C1620      N2171   1.361       .  A
C1620      C1621   1.376       .  A
C1621      C1622   1.370       .  A
C1621      H1624   1.082       .  S
C1622      C2175   1.385       .  A
C1622      H1625   1.080       .  S
C1623      C2174   1.385   1_545  A
C1623      C1630   1.486       .  S
N1626      C1630   1.359       .  A
N1626      C1627   1.358       .  A
N1626      C2198   1.436       .  S
C1627      C1628   1.384       .  A
C1628      C1629   1.379       .  A
C1628      H1631   1.082       .  S
C1629      C1630   1.383       .  A
C1629      H1632   1.082       .  S
N1633      N1634   1.320       .  A
N1633      C1637   1.349       .  A
N1633     Cu1641   2.110       .  S
N1634      C1635   1.343       .  A
N1634     Cu1640   2.047       .  S
C1635      C1636   1.379       .  A
C1635      H1638   1.082       .  S
C1636      C1637   1.394       .  A
C1637      H1639   1.081       .  S
Cu1640     N1643   2.048       .  S
Cu1641     N1651   2.111       .  S
Cu1642     N1644   2.095       .  S
Cu1642     N1650   2.095       .  S
N1643      N1644   1.321       .  A
N1643      C1647   1.340       .  A
N1644      C1645   1.349       .  A
C1645      C1646   1.390       .  A
C1645      H1648   1.082       .  S
C1646      C1647   1.376       .  A
C1646      N2178   1.436       .  S
C1647      H1649   1.080       .  S
N1650      N1651   1.326       .  A
N1650      C1654   1.350       .  A
N1651      C1652   1.350       .  A
C1652      C1653   1.386       .  A
C1652      H1655   1.082       .  S
C1653      C1654   1.384       .  A
C1654      H1656   1.082       .  S
N1657      N1658   1.323       .  A
N1657      C1661   1.341       .  A
N1657     Cu1665   2.055       .  S
N1658      C1659   1.355       .  A
N1658     Cu1664   2.112       .  S
C1659      C1660   1.394       .  A
C1659      H1662   1.082       .  S
C1660      C1661   1.378       .  A
C1661      H1663   1.081       .  S
Cu1664     N1667   2.114       .  S
Cu1665     N1675   2.055       .  S
Cu1666     N1668   2.071       .  S
Cu1666     N1674   2.069       .  S
N1667      N1668   1.327       .  A
N1667      C1671   1.349       .  A
N1668      C1669   1.347       .  A
C1669      C1670   1.379       .  A
C1669      H1672   1.082       .  S
C1670      C1671   1.387       .  A
C1671      H1673   1.080       .  S
N1674      N1675   1.320       .  A
N1674      C1678   1.347       .  A
N1675      C1676   1.341       .  A
C1676      C1677   1.377       .  A
C1676      H1679   1.082       .  S
C1677      C1678   1.382       .  A
C1677      C1792   1.465       .  S
C1678      H1680   1.082       .  S
N1681      N1682   1.325       .  A
N1681      C1685   1.344   1_554  A
N1681     Cu1689   2.071       .  S
N1682      C1683   1.356       .  A
N1682     Cu1688   2.119       .  S
C1683      C1684   1.390   1_554  A
C1683      H1686   1.082       .  S
C1684      C1685   1.377       .  A
C1684      N2074   1.442       .  S
C1685      H1963   1.081       .  S
H1687      C1961   1.081       .  S
Cu1688     N1691   2.121       .  S
Cu1689     N1699   2.072       .  S
Cu1690     N1692   2.078       .  S
Cu1690     N1698   2.078       .  S
N1691      N1692   1.325       .  A
N1691      C1695   1.348       .  A
N1692      C1693   1.351       .  A
C1693      C1694   1.384       .  A
C1693      H1696   1.077       .  S
C1694      C1695   1.394       .  A
N1698      N1699   1.322       .  A
N1698      C1702   1.347       .  A
N1699      C1700   1.345       .  A
C1700      C1701   1.382       .  A
C1700      H1703   1.082       .  S
C1701      C1702   1.383       .  A
C1701      C1754   1.474       .  S
C1702      H1704   1.081       .  S
N1705      N1706   1.322       .  A
N1705      C1709   1.349       .  A
N1705     Cu1713   2.072       .  S
N1706      C1707   1.339       .  A
N1706     Cu1712   2.069       .  S
C1707      C1708   1.380       .  A
C1707      H1710   1.082       .  S
C1708      C1709   1.384       .  A
C1708      C1830   1.468       .  S
C1709      H1711   1.082       .  S
Cu1712     N1715   2.067       .  S
Cu1713     N1723   2.071       .  S
Cu1714     N1716   2.108       .  S
Cu1714     N1722   2.111       .  S
N1715      N1716   1.319       .  A
N1715      C1719   1.342       .  A
N1716      C1717   1.353       .  A
C1717      C1718   1.397       .  A
C1717      H1996   1.082       .  S
C1718      C1719   1.387       .  A
C1718      C2147   1.485       .  S
C1719      H1721   1.082       .  S
H1720      C1993   1.082       .  S
N1722      N1723   1.325       .  A
N1722      C1726   1.346       .  A
N1723      C1724   1.348       .  A
C1724      C1725   1.381       .  A
C1724      H1727   1.081       .  S
C1725      C1726   1.389       .  A
C1725      C1761   1.481       .  S
C1726      H1728   1.082       .  S
N1729      N1730   1.327       .  A
N1729      C1733   1.349       .  A
N1729     Cu1737   2.082       .  S
N1730      C1731   1.346       .  A
N1730     Cu1736   2.098       .  S
C1731      C1732   1.383       .  A
C1731      H1734   1.081       .  S
C1732      C1733   1.383       .  A
C1732      N1791   1.444       .  S
C1733      H1735   1.082       .  S
Cu1736     N1739   2.095       .  S
Cu1737     N1747   2.080       .  S
Cu1738     N1740   2.048       .  S
Cu1738     N1746   2.046       .  S
N1739      N1740   1.321       .  A
N1739      C1743   1.352       .  A
N1740      C1741   1.339       .  A
C1741      C1742   1.379       .  A
C1741      H1744   1.081       .  S
C1742      C1743   1.392       .  A
C1742      N1895   1.446       .  S
C1743      H1745   1.081       .  S
N1746      N1747   1.321       .  A
N1746      C1750   1.341       .  A
N1747      C1748   1.347       .  A
C1748      C1749   1.385       .  A
C1748      H1751   1.082       .  S
C1749      C1750   1.374       .  A
C1749      C1837   1.465       .  S
C1750      H1752   1.082       .  S
N1753      C1757   1.369       .  A
N1753      C1754   1.355       .  A
C1754      C1755   1.378       .  A
C1755      C1756   1.377       .  A
C1755      H1758   1.082       .  S
C1756      C1757   1.387       .  A
C1756      H1759   1.078       .  S
N1760      C1764   1.369       .  A
N1760      C1761   1.360       .  A
C1761      C1762   1.379       .  A
C1762      C1763   1.372       .  A
C1762      H1765   1.082       .  S
C1763      C1764   1.385       .  A
C1763      H1766   1.080       .  S
N1767      N1768   1.327       .  A
N1767      C1771   1.350       .  A
N1767     Cu1775   2.110       .  S
N1768      C1769   1.352       .  A
N1768     Cu1774   2.094       .  S
C1769      C1770   1.383       .  A
C1769      H1772   1.082       .  S
C1770      C1771   1.385       .  A
C1771      H1773   1.082       .  S
Cu1774     N1777   2.095       .  S
Cu1775     N1785   2.110       .  S
Cu1776     N1778   2.072       .  S
Cu1776     N1784   2.071       .  S
N1777      N1778   1.321       .  A
N1777      C1781   1.345   1_554  A
N1778      C1779   1.347       .  A
C1779      C2056   1.386   1_554  A
C1779      H1782   1.074       .  S
C1780      C2055   1.386       .  A
C1780      C2057   1.393       .  A
C1780      N1874   1.449       .  S
C1781      C2056   1.393       .  A
C1781      H2059   1.079       .  S
H1783      C2057   1.079       .  S
N1784      N1785   1.324       .  A
N1784      C1788   1.347       .  A
N1785      C1786   1.350       .  A
C1786      C1787   1.389       .  A
C1786      H1789   1.082       .  S
C1787      C1788   1.380       .  A
C1787      C1882   1.480       .  S
C1788      H1790   1.082       .  S
N1791      C1795   1.364       .  A
N1791      C2068   1.351       .  A
C1792      N2067   1.351   1_554  A
C1792      C1793   1.378       .  A
C1793      C1794   1.376       .  A
C1793      H1796   1.082       .  S
C1794      C2071   1.386   1_554  A
C1794      H1797   1.079       .  S
C1795      C2070   1.386       .  A
C1795      C1802   1.487       .  S
N1798      C1802   1.365       .  A
N1798      C1799   1.356       .  A
N1798      C1960   1.442       .  S
C1799      C1800   1.378       .  A
C1799      C1808   1.471       .  S
C1800      C1801   1.370       .  A
C1800      H1803   1.082       .  S
C1801      C1802   1.385       .  A
C1801      H1804   1.081       .  S
N1805      N1806   1.322       .  A
N1805      C1809   1.346       .  A
N1805     Cu1813   2.070       .  S
N1806      C1807   1.343       .  A
N1806     Cu1812   2.086       .  S
C1807      C1808   1.386       .  A
C1807      H1810   1.082       .  S
C1808      C1809   1.383       .  A
C1809      H1811   1.081       .  S
Cu1812     N1815   2.088       .  S
Cu1813     N1823   2.070       .  S
Cu1814     N1816   2.083       .  S
Cu1814     N1822   2.084       .  S
N1815      N1816   1.320       .  A
N1815      C1819   1.347       .  A
N1816      C1817   1.346       .  A
C1817      C1818   1.390       .  A
C1817      H1820   1.082       .  S
C1818      C1819   1.391       .  A
C1818      C1892   1.481       .  S
N1822      N1823   1.323       .  A
N1822      C1826   1.344       .  A
N1823      C1824   1.347       .  A
C1824      C1825   1.382       .  A
C1824      H1827   1.082       .  S
C1825      C1826   1.383       .  A
C1825      C1896   1.473       .  S
C1826      H1828   1.082       .  S
N1829      C1833   1.365       .  A
N1829      C1830   1.359       .  A
C1830      C1831   1.376       .  A
C1831      C1832   1.365       .  A
C1831      H1834   1.082       .  S
C1832      C1833   1.386       .  A
C1832      H1835   1.079       .  S
C1833      C1840   1.485   1_655  S
N1836      C1840   1.360       .  A
N1836      C1856   1.438   1_455  S
C1837      C1838   1.377       .  A
C1838      C1839   1.378       .  A
C1838      H1841   1.082       .  S
C1839      H1842   1.081       .  S
N1843      N1844   1.317       .  A
N1843      C1847   1.338       .  A
N1843     Cu1851   2.067       .  S
N1844      C1845   1.347       .  A
N1844     Cu1850   2.064       .  S
C1845      C1846   1.390       .  A
C1845      H1848   1.082       .  S
C1846      C1847   1.386       .  A
C1846      C1868   1.480       .  S
C1847      H1849   1.074       .  S
Cu1850     N1853   2.066       .  S
Cu1851     N1861   2.068       .  S
Cu1852     N1854   2.099       .  S
Cu1852     N1860   2.099       .  S
N1853      N1854   1.326       .  A
N1853      C1857   1.340       .  A
N1854      C1855   1.352       .  A
C1855      C1856   1.386       .  A
C1855      H1858   1.082       .  S
C1856      C1857   1.375       .  A
C1857      H1859   1.081       .  S
N1860      N1861   1.321       .  A
N1860      C1864   1.349       .  A
N1861      C1862   1.344       .  A
C1862      C1863   1.383       .  A
C1862      H1865   1.082       .  S
C1863      C1864   1.392       .  A
C1863      C1903   1.486       .  S
C1864      H1866   1.076       .  S
N1867      C1871   1.357       .  A
N1867      C1868   1.359       .  A
N1867      C1878   1.450       .  S
C1868      C1869   1.379       .  A
C1869      C1870   1.369       .  A
C1869      H1872   1.082       .  S
C1870      C1871   1.389       .  A
C1870      H2149   1.082       .  S
C1871      C1994   1.485       .  S
H1873      C2146   1.082   1_554  S
N1874      C1878   1.368       .  A
N1874      C1875   1.357       .  A
C1875      C1876   1.377       .  A
C1875      C1929   1.485       .  S
C1876      C1877   1.380       .  A
C1876      H1879   1.082       .  S
C1877      C1878   1.386       .  A
C1877      H1880   1.080       .  S
N1881      C1885   1.372       .  A
N1881      C1882   1.357       .  A
C1882      C1883   1.374       .  A
C1883      C1884   1.375       .  A
C1883      H1886   1.082       .  S
C1884      C1885   1.389       .  A
C1884      H1887   1.080       .  S
C1885      N1888   1.451       .  S
N1888      C1889   1.357       .  A
C1889      C1890   1.377       .  A
C1889      C1912   1.480       .  S
C1890      C1891   1.370   1_655  A
C1890      H1893   1.082       .  S
N1895      C1899   1.364       .  A
C1896      C1897   1.376       .  A
C1897      C1898   1.370       .  A
C1897      H1900   1.082       .  S
C1898      H1901   1.080       .  S
C1899      C1906   1.486       .  S
N1902      C1906   1.359       .  A
N1902      C1903   1.358       .  A
C1903      C1904   1.384       .  A
C1904      C1905   1.379       .  A
C1904      H1907   1.082       .  S
C1905      C1906   1.383       .  A
C1905      H1908   1.082       .  S
N1909      N1910   1.320       .  A
N1909      C1913   1.349       .  A
N1909     Cu1917   2.110       .  S
N1910      C1911   1.343       .  A
N1910     Cu1916   2.047       .  S
C1911      C1912   1.379       .  A
C1911      H1914   1.082       .  S
C1912      C1913   1.394       .  A
C1913      H1915   1.081       .  S
Cu1916     N1919   2.048       .  S
Cu1917     N1927   2.111       .  S
Cu1918     N1920   2.095       .  S
Cu1918     N1926   2.095       .  S
N1919      N1920   1.321       .  A
N1919      C1923   1.340       .  A
N1920      C1921   1.349       .  A
C1921      C1922   1.390   1_565  A
C1921      H1924   1.082       .  S
C1922      C1923   1.376   1_545  A
C1923      H1925   1.080   1_565  S
N1926      N1927   1.326       .  A
N1926      C1930   1.350       .  A
N1927      C1928   1.350       .  A
C1928      C1929   1.386       .  A
C1928      H1931   1.082       .  S
C1929      C1930   1.384       .  A
C1930      H1932   1.082       .  S
N1933      N1934   1.323       .  A
N1933      C1937   1.341       .  A
N1933     Cu1941   2.055       .  S
N1934      C1935   1.355       .  A
N1934     Cu1940   2.112       .  S
C1935      C1936   1.394       .  A
C1935      H1938   1.082       .  S
C1936      C1937   1.378       .  A
C1937      H1939   1.081       .  S
Cu1940     N1943   2.114       .  S
Cu1941     N1951   2.055       .  S
Cu1942     N1944   2.071       .  S
Cu1942     N1950   2.069       .  S
N1943      N1944   1.327       .  A
N1943      C1947   1.349       .  A
N1944      C1945   1.347       .  A
C1945      C1946   1.379       .  A
C1945      H1948   1.082       .  S
C1946      C1947   1.387       .  A
C1947      H1949   1.080       .  S
N1950      N1951   1.320       .  A
N1950      C1954   1.347       .  A
N1951      C1952   1.341       .  A
C1952      C1953   1.377       .  A
C1952      H1955   1.082       .  S
C1953      C1954   1.382       .  A
C1953      C2068   1.465       .  S
C1954      H1956   1.082       .  S
N1957      N1958   1.325       .  A
N1957      C1961   1.344       .  A
N1957     Cu1965   2.071       .  S
N1958      C1959   1.356       .  A
N1958     Cu1964   2.119       .  S
C1959      C1960   1.390       .  A
C1959      H1962   1.082       .  S
C1960      C1961   1.377       .  A
Cu1964     N1967   2.121       .  S
Cu1965     N1975   2.072       .  S
Cu1966     N1968   2.078       .  S
Cu1966     N1974   2.078       .  S
N1967      N1968   1.325       .  A
N1967      C1971   1.348       .  A
N1968      C1969   1.351       .  A
C1969      C1970   1.384       .  A
C1969      H1972   1.077       .  S
C1970      C1971   1.394       .  A
N1974      N1975   1.322       .  A
N1974      C1978   1.347       .  A
N1975      C1976   1.345       .  A
C1976      C1977   1.382       .  A
C1976      H1979   1.082       .  S
C1977      C1978   1.383       .  A
C1977      C2030   1.474       .  S
C1978      H1980   1.081       .  S
N1981      N1982   1.322       .  A
N1981      C1985   1.349       .  A
N1981     Cu1989   2.072       .  S
N1982      C1983   1.339       .  A
N1982     Cu1988   2.069       .  S
C1983      C1984   1.380       .  A
C1983      H1986   1.082       .  S
C1984      C1985   1.384       .  A
C1984      C2106   1.468       .  S
C1985      H1987   1.082       .  S
Cu1988     N1991   2.067       .  S
Cu1989     N1999   2.071       .  S
Cu1990     N1992   2.108       .  S
Cu1990     N1998   2.111       .  S
N1991      N1992   1.319       .  A
N1991      C1995   1.342       .  A
N1992      C1993   1.353       .  A
C1993      C1994   1.397       .  A
C1994      C1995   1.387       .  A
C1995      H1997   1.082       .  S
N1998      N1999   1.325       .  A
N1998      C2002   1.346       .  A
N1999      C2000   1.348       .  A
C2000      C2001   1.381       .  A
C2000      H2003   1.081       .  S
C2001      C2002   1.389       .  A
C2001      C2037   1.481       .  S
C2002      H2004   1.082       .  S
N2005      N2006   1.327       .  A
N2005      C2009   1.349       .  A
N2005     Cu2013   2.082       .  S
N2006      C2007   1.346       .  A
N2006     Cu2012   2.098       .  S
C2007      C2008   1.383       .  A
C2007      H2010   1.081       .  S
C2008      C2009   1.383       .  A
C2008      N2067   1.444       .  S
C2009      H2011   1.082       .  S
Cu2012     N2015   2.095       .  S
Cu2013     N2023   2.080       .  S
Cu2014     N2016   2.048       .  S
Cu2014     N2022   2.046       .  S
N2015      N2016   1.321       .  A
N2015      C2019   1.352       .  A
N2016      C2017   1.339       .  A
C2017      C2018   1.379       .  A
C2017      H2020   1.081       .  S
C2018      C2019   1.392       .  A
C2018      N2171   1.446       .  S
C2019      H2021   1.081       .  S
N2022      N2023   1.321       .  A
N2022      C2026   1.341       .  A
N2023      C2024   1.347       .  A
C2024      C2025   1.385       .  A
C2024      H2027   1.082       .  S
C2025      C2026   1.374       .  A
C2025      C2113   1.465       .  S
C2026      H2028   1.082       .  S
N2029      C2033   1.369       .  A
N2029      C2030   1.355       .  A
C2030      C2031   1.378       .  A
C2031      C2032   1.377       .  A
C2031      H2034   1.082       .  S
C2032      C2033   1.387       .  A
C2032      H2035   1.078       .  S
N2036      C2040   1.369       .  A
N2036      C2037   1.360       .  A
C2037      C2038   1.379       .  A
C2038      C2039   1.372       .  A
C2038      H2041   1.082       .  S
C2039      C2040   1.385       .  A
C2039      H2042   1.080       .  S
N2043      N2044   1.327       .  A
N2043      C2047   1.350       .  A
N2043     Cu2051   2.110       .  S
N2044      C2045   1.352       .  A
N2044     Cu2050   2.094       .  S
C2045      C2046   1.383       .  A
C2045      H2048   1.082       .  S
C2046      C2047   1.385       .  A
C2047      H2049   1.082       .  S
Cu2050     N2053   2.095       .  S
Cu2051     N2061   2.110       .  S
Cu2052     N2054   2.072       .  S
Cu2052     N2060   2.071       .  S
N2053      N2054   1.321       .  A
N2053      C2057   1.345       .  A
N2054      C2055   1.347       .  A
C2055      H2058   1.074       .  S
C2056      N2150   1.449       .  S
N2060      N2061   1.324       .  A
N2060      C2064   1.347       .  A
N2061      C2062   1.350       .  A
C2062      C2063   1.389       .  A
C2062      H2065   1.082       .  S
C2063      C2064   1.380       .  A
C2063      C2158   1.480       .  S
C2064      H2066   1.082       .  S
N2067      C2071   1.364       .  A
C2068      C2069   1.378       .  A
C2069      C2070   1.376       .  A
C2069      H2072   1.082       .  S
C2070      H2073   1.079       .  S
C2071      C2078   1.487       .  S
N2074      C2078   1.365       .  A
N2074      C2075   1.356       .  A
C2075      C2076   1.378       .  A
C2075      C2084   1.471       .  S
C2076      C2077   1.370       .  A
C2076      H2079   1.082       .  S
C2077      C2078   1.385       .  A
C2077      H2080   1.081       .  S
N2081      N2082   1.322       .  A
N2081      C2085   1.346       .  A
N2081     Cu2089   2.070       .  S
N2082      C2083   1.343       .  A
N2082     Cu2088   2.086       .  S
C2083      C2084   1.386       .  A
C2083      H2086   1.082       .  S
C2084      C2085   1.383       .  A
C2085      H2087   1.081       .  S
Cu2088     N2091   2.088       .  S
Cu2089     N2099   2.070       .  S
Cu2090     N2092   2.083       .  S
Cu2090     N2098   2.084       .  S
N2091      N2092   1.320       .  A
N2091      C2095   1.347       .  A
N2092      C2093   1.346       .  A
C2093      C2094   1.390       .  A
C2093      H2096   1.082       .  S
C2094      C2095   1.391       .  A
C2094      C2168   1.481       .  S
N2098      N2099   1.323       .  A
N2098      C2102   1.344       .  A
N2099      C2100   1.347       .  A
C2100      C2101   1.381       .  A
C2100      H2103   1.082       .  S
C2101      C2102   1.383       .  A
C2101      C2172   1.473       .  S
C2102      H2104   1.082       .  S
N2105      C2109   1.365       .  A
N2105      C2106   1.359       .  A
C2106      C2107   1.376       .  A
C2107      C2108   1.365       .  A
C2107      H2110   1.082       .  S
C2108      C2109   1.386       .  A
C2108      H2111   1.079       .  S
C2109      C2116   1.485   1_655  S
N2112      C2116   1.360       .  A
N2112      C2132   1.438   1_455  S
C2113      C2114   1.377       .  A
C2114      C2115   1.378       .  A
C2114      H2117   1.082       .  S
C2115      H2118   1.081       .  S
N2119      N2120   1.317       .  A
N2119      C2123   1.338       .  A
N2119     Cu2127   2.067       .  S
N2120      C2121   1.347       .  A
N2120     Cu2126   2.064       .  S
C2121      C2122   1.390       .  A
C2121      H2124   1.082       .  S
C2122      C2123   1.386       .  A
C2122      C2144   1.480       .  S
C2123      H2125   1.074       .  S
Cu2126     N2129   2.066       .  S
Cu2127     N2137   2.068       .  S
Cu2128     N2130   2.099       .  S
Cu2128     N2136   2.099       .  S
N2129      N2130   1.326       .  A
N2129      C2133   1.340       .  A
N2130      C2131   1.352       .  A
C2131      C2132   1.386       .  A
C2131      H2134   1.082       .  S
C2132      C2133   1.375       .  A
C2133      H2135   1.081       .  S
N2136      N2137   1.321       .  A
N2136      C2140   1.349       .  A
N2137      C2138   1.344       .  A
C2138      C2139   1.383       .  A
C2138      H2141   1.082       .  S
C2139      C2140   1.392       .  A
C2139      C2179   1.486       .  S
C2140      H2142   1.076       .  S
N2143      C2147   1.357   1_556  A
N2143      C2144   1.359       .  A
N2143      C2154   1.450       .  S
C2144      C2145   1.379       .  A
C2145      C2146   1.369       .  A
C2145      H2148   1.082       .  S
C2146      C2147   1.389   1_556  A
N2150      C2154   1.368       .  A
N2150      C2151   1.357       .  A
C2151      C2152   1.377       .  A
C2151      C2205   1.485       .  S
C2152      C2153   1.380       .  A
C2152      H2155   1.082       .  S
C2153      C2154   1.386       .  A
C2153      H2156   1.080       .  S
N2157      C2161   1.372       .  A
N2157      C2158   1.357       .  A
C2158      C2159   1.374       .  A
C2159      C2160   1.375       .  A
C2159      H2162   1.082       .  S
C2160      C2161   1.389       .  A
C2160      H2163   1.080       .  S
C2161      N2164   1.451       .  S
N2164      C2165   1.357       .  A
C2165      C2166   1.377       .  A
C2165      C2188   1.480       .  S
C2166      C2167   1.370   1_655  A
C2166      H2169   1.082       .  S
N2171      C2175   1.364       .  A
C2172      C2173   1.376       .  A
C2173      C2174   1.370       .  A
C2173      H2176   1.082       .  S
C2174      H2177   1.080       .  S
C2175      C2182   1.486       .  S
N2178      C2182   1.359       .  A
N2178      C2179   1.358       .  A
C2179      C2180   1.384       .  A
C2180      C2181   1.379       .  A
C2180      H2183   1.082       .  S
C2181      C2182   1.383       .  A
C2181      H2184   1.082       .  S
N2185      N2186   1.320       .  A
N2185      C2189   1.349       .  A
N2185     Cu2193   2.110       .  S
N2186      C2187   1.343       .  A
N2186     Cu2192   2.047       .  S
C2187      C2188   1.379       .  A
C2187      H2190   1.082       .  S
C2188      C2189   1.394       .  A
C2189      H2191   1.081       .  S
Cu2192     N2195   2.048       .  S
Cu2193     N2203   2.111       .  S
Cu2194     N2196   2.095       .  S
Cu2194     N2202   2.095       .  S
N2195      N2196   1.321       .  A
N2195      C2199   1.340       .  A
N2196      C2197   1.349       .  A
C2197      C2198   1.390   1_565  A
C2197      H2200   1.082       .  S
C2198      C2199   1.376   1_545  A
C2199      H2201   1.080   1_565  S
N2202      N2203   1.326       .  A
N2202      C2206   1.350       .  A
N2203      C2204   1.350       .  A
C2204      C2205   1.386       .  A
C2204      H2207   1.082       .  S
C2205      C2206   1.384       .  A
C2206      H2208   1.082       .  S
