geometry optimzed in LAMMPS
_audit_creation_date              2020-12-01 
_audit_creation_method            'lammps2cif' 
_symmetry_space_group_name_H-M    'P1' 
_symmetry_Int_Tables_number       1 
_symmetry_cell_setting            triclinic 
loop_ 
_symmetry_equiv_pos_as_xyz 
  x,y,z 
_cell_length_a                    21.60316938 
_cell_length_b                    21.570058972036456 
_cell_length_c                    21.84967021767274 
_cell_angle_alpha                 97.2949168759761 
_cell_angle_beta                  89.86391480886361 
_cell_angle_gamma                 82.44608277517987 
loop_ 
_atom_site_label 
_atom_site_type_symbol 
_atom_site_fract_x 
_atom_site_fract_y 
_atom_site_fract_z 
_atom_site_charge 
C1          C  0.81107145  0.39341016  0.45492251     0.04000
C2          C  0.82546140  0.36295438  0.50879549    -0.12200
C3          C  0.81840035  0.39819214  0.56911783     0.01500
C4          C  0.79320428  0.46144146  0.57409367    -0.10700
C5          C  0.77946895  0.49188213  0.52242039     0.03900
C6          C  0.78809357  0.45818877  0.46302759    -0.10100
H7          H  0.84319569  0.31320106  0.50371876     0.09500
H8          H  0.78685155  0.48921359  0.61924155     0.07100
H9          H  0.77906338  0.48293549  0.42310919     0.06900
C10         C  0.57979776  0.86764154  0.34620984     0.04000
C11         C  0.55514343  0.91208178  0.39615904    -0.12200
C12         C  0.49036951  0.92140311  0.41036893     0.01500
C13         C  0.45067720  0.88472908  0.37846420    -0.10700
C14         C  0.47139291  0.83926929  0.32927813     0.03900
C15         C  0.53622873  0.83164608  0.31179498    -0.10100
H16         H  0.58585133  0.94048505  0.42258050     0.09500
H17         H  0.40147654  0.89427874  0.39143327     0.07100
H18         H  0.55237243  0.79844613  0.27180509     0.06900
C19         C  0.36870611  0.45618279  0.73014323     0.04000
C20         C  0.34525552  0.52086210  0.73626890    -0.12200
C21         C  0.38739077  0.56659219  0.74318544     0.01500
C22         C  0.45102614  0.54493194  0.75176046    -0.10700
C23         C  0.47140499  0.47930463  0.74699216     0.03900
C24         C  0.43210843  0.43818148  0.72033542    -0.10100
H25         H  0.29531717  0.53539557  0.74029774     0.09500
H26         H  0.48246047  0.57828155  0.76776577     0.07100
H27         H  0.44931375  0.38834726  0.71242742     0.06900
C28         C  0.24306560  0.35946024  0.93275317     0.04000
C29         C  0.25533505  0.32165509  0.98169035    -0.12200
C30         C  0.24747055  0.34985721  0.04387868     0.01500
C31         C  0.23165618  0.41548213  0.05504239    -0.10700
C32         C  0.21879795  0.45245812  0.00765473     0.03900
C33         C  0.22346014  0.42416222  0.94682823    -0.10100
H34         H  0.27090152  0.27162906  0.97140638     0.09500
H35         H  0.22760784  0.43825895  0.10198964     0.07100
H36         H  0.21266670  0.45321099  0.91022638     0.06900
C37         C  0.35994925  0.95653022  0.19195626     0.04000
C38         C  0.32973247  0.01779248  0.18625211    -0.12200
C39         C  0.36599325  0.06584570  0.17486578     0.01500
C40         C  0.43132997  0.05173847  0.17165156    -0.10700
C41         C  0.46029150  0.99143969  0.17867726     0.03900
C42         C  0.42482018  0.94527054  0.19094538    -0.10100
H43         H  0.27938386  0.02794985  0.19085837     0.09500
H44         H  0.45997146  0.08734647  0.16257585     0.07100
H45         H  0.44837812  0.89877669  0.19657314     0.06900
C46         C  0.86025383  0.76857823  0.46623714     0.04000
C47         C  0.82832768  0.78923901  0.52381730    -0.12200
C48         C  0.85046214  0.76357290  0.57758167     0.01500
C49         C  0.90255414  0.71854143  0.57246432    -0.10700
C50         C  0.93846513  0.70304894  0.51936077     0.03900
C51         C  0.91555264  0.72449963  0.46501041    -0.10100
H52         H  0.78865256  0.82590455  0.52705192     0.09500
H53         H  0.91904740  0.69839227  0.61268748     0.07100
H54         H  0.94268458  0.70940094  0.42275795     0.06900
C55         C  0.23669116  0.76344420  0.92417221     0.04000
C56         C  0.17529712  0.79314681  0.92446088    -0.12200
C57         C  0.14049240  0.80950231  0.97920114     0.01500
C58         C  0.16623437  0.79494780  0.03523804    -0.10700
C59         C  0.22721616  0.76334425  0.03758928     0.03900
C60         C  0.26347328  0.74934114  0.98134405    -0.10100
H61         H  0.15392847  0.80349723  0.88135258     0.09500
H62         H  0.13759036  0.80677941  0.07693548     0.07100
H63         H  0.31114663  0.72665666  0.98165404     0.06900
N64         N  0.11318040  0.65426217  0.03251356    -0.35800
N65         N  0.05788075  0.51137936  0.08360343    -0.56300
N66         N  0.99455445  0.47447358  0.97335229    -0.35800
N67         N  0.05346231  0.61328151  0.92104919    -0.56300
C68         C  0.10162898  0.63614486  0.08779647     0.27800
C69         C  0.06826205  0.70151522  0.02430727     0.27800
C70         C  0.03709654  0.42514365  0.98083257     0.27800
C71         C  0.00569591  0.49023482  0.91698836     0.27800
C72         C  0.09519192  0.53718718  0.12628900     0.36400
C73         C  0.06167763  0.44922069  0.08862879     0.36400
C74         C  0.04933660  0.67518417  0.91519608     0.36400
C75         C  0.01759870  0.58671670  0.87745700     0.36400
C76         C  0.05067720  0.67461644  0.11651189    -0.21100
C77         C  0.03077316  0.71792801  0.07682979    -0.21100
C78         C  0.07225563  0.40540082  0.92717620    -0.21100
C79         C  0.05375820  0.44851950  0.88716048    -0.21100
C80         C  0.11803727  0.49146354  0.16302539    -0.22100
C81         C  0.09559065  0.43605160  0.14006918    -0.22100
C82         C  0.01860124  0.68691208  0.86162513    -0.22100
C83         C  0.99699674  0.63117602  0.83881019    -0.22100
C84         C  0.13193287  0.58129845  0.10835205    -0.17500
C85         C  0.05373296  0.72085224  0.96664725    -0.17500
C86         C  0.97810504  0.54559750  0.89599515    -0.17500
C87         C  0.05118800  0.40451551  0.03788930    -0.17500
H88         H  0.02908054  0.67037906  0.16026764     0.15400
H89         H  0.98965912  0.75274695  0.08299251     0.15400
H90         H  0.11077262  0.36766103  0.91999364     0.15400
H91         H  0.07423365  0.45024298  0.84225451     0.15400
H92         H  0.15517388  0.49491023  0.19598192     0.13700
H93         H  0.11101343  0.38996693  0.15338994     0.13700
H94         H  0.00294882  0.73258265  0.84744970     0.13700
H95         H  0.95978434  0.62744985  0.80612473     0.13700
H96         H  0.14768691  0.63411959  0.99981214     0.27000
H97         H  0.96178508  0.49688463  0.00683258     0.27000
C98         C  0.74253272  0.00639336  0.19630592     0.04000
C99         C  0.76497525  0.06551904  0.21128909    -0.12200
C100        C  0.75895693  0.11185484  0.16912923     0.01500
C101        C  0.73550005  0.09428278  0.10955901    -0.10700
C102        C  0.71869658  0.03298963  0.09256127     0.03900
C103        C  0.71970669  0.99230076  0.13741343    -0.10100
H104        H  0.78312116  0.07703764  0.25688014     0.09500
H105        H  0.73010396  0.12813722  0.07670832     0.07100
H106        H  0.70131630  0.94821015  0.12658270     0.06900
N107        N  0.44195282  0.97446173  0.04761271    -0.35800
N108        N  0.56015597  0.86329962  0.97976844    -0.56300
N109        N  0.57635435  0.01921322  0.94944277    -0.35800
N110        N  0.44183133  0.06512081  0.96815730    -0.56300
C111        C  0.45491137  0.91329145  0.05522179     0.27800
C112        C  0.38138917  0.98529113  0.03173541     0.27800
C113        C  0.60245970  0.96021134  0.93037764     0.27800
C114        C  0.54657623  0.04070711  0.90094632     0.27800
C115        C  0.54938332  0.84250269  0.03373850     0.36400
C116        C  0.62216011  0.86482548  0.97579522     0.36400
C117        C  0.38873459  0.08715026  0.99884725     0.36400
C118        C  0.46140297  0.11268120  0.94326239     0.36400
C119        C  0.40297695  0.88313401  0.04110853    -0.21100
C120        C  0.35544490  0.92944891  0.02816362    -0.21100
C121        C  0.58136225  0.94098068  0.87194949    -0.21100
C122        C  0.54715822  0.99331153  0.85215913    -0.21100
C123        C  0.60498747  0.81018805  0.05166742    -0.22100
C124        C  0.65158199  0.82472842  0.01488335    -0.22100
C125        C  0.37296187  0.15071045  0.99328232    -0.22100
C126        C  0.42066560  0.16760289  0.95854711    -0.22100
C127        C  0.51264298  0.88625293  0.07666412    -0.17500
C128        C  0.35190804  0.04486345  0.01928870    -0.17500
C129        C  0.51425369  0.10140076  0.90504518    -0.17500
C130        C  0.64180041  0.92308592  0.96638388    -0.17500
H131        H  0.39895347  0.83396509  0.04301837     0.15400
H132        H  0.30805701  0.92254668  0.01610500     0.15400
H133        H  0.58951616  0.89430441  0.84681619     0.15400
H134        H  0.52396888  0.99574601  0.80849690     0.15400
H135        H  0.61320178  0.79341022  0.09598183     0.13700
H136        H  0.70068567  0.81774970  0.02532948     0.13700
H137        H  0.33048632  0.18031625  0.00970621     0.13700
H138        H  0.42303160  0.21308405  0.94333945     0.13700
H139        H  0.47345875  0.00738622  0.05448097     0.27000
H140        H  0.57443581  0.04261350  0.99436140     0.27000
C141        C  0.87313169  0.35874457  0.95052219     0.04000
C142        C  0.93665100  0.33299201  0.95259071    -0.12200
C143        C  0.96303606  0.31608251  0.00789811     0.01500
C144        C  0.92655839  0.32438936  0.06150532    -0.10700
C145        C  0.86340284  0.34817170  0.06191292     0.03900
C146        C  0.83599895  0.36472300  0.00593132    -0.10100
H147        H  0.96600027  0.32658067  0.91140450     0.09500
H148        H  0.94799875  0.31167485  0.10385915     0.07100
H149        H  0.78687427  0.38284021  0.00588298     0.06900
O150        O  0.78540977  0.82147478  0.15693650    -0.81000
C151        C  0.84066625  0.79397719  0.40745312     0.98400
O152        O  0.87328727  0.77284190  0.35938455    -0.70100
O153        O  0.80780891  0.70259697  0.28639762    -0.73700
Al154      Al  0.85666870  0.76712404  0.27315544     1.49000
C155        C  0.76003108  0.69146291  0.25647830     0.93600
O156        O  0.66630273  0.81992749  0.28230627    -0.79900
O157        O  0.77742588  0.95322385  0.28386769    -0.73500
Al158      Al  0.73037710  0.82055210  0.22455764     1.90100
O159        O  0.68909614  0.89546797  0.35155947    -0.72500
O160        O  0.87530349  0.89835924  0.33749621    -0.72400
O161        O  0.79382461  0.83571370  0.40454706    -0.78000
O162        O  0.91191669  0.82519390  0.26152831    -0.76200
O163        O  0.79005414  0.82638691  0.27986550    -1.12400
O164        O  0.85544616  0.74807102  0.18361482    -0.71600
C165        C  0.83027925  0.77925712  0.14239949     0.99100
C166        C  0.64893023  0.86087220  0.32694846     0.95500
Al167      Al  0.78392718  0.89067834  0.34014603     1.55600
O168        O  0.73730908  0.72863918  0.21862283    -0.76200
C169        C  0.91903573  0.87343918  0.29855614     0.99700
C170        C  0.74346566  0.95500084  0.23724940     0.94600
O171        O  0.71183594  0.91002524  0.22166858    -0.81500
C172        C  0.71050728  0.52616399  0.25277401     0.04000
C173        C  0.75090353  0.57406078  0.26227406    -0.12200
C174        C  0.72550517  0.63873561  0.26864057     0.01500
C175        C  0.66114159  0.65406974  0.27407950    -0.10700
C176        C  0.62421779  0.61025658  0.24770534     0.03900
C177        C  0.64681431  0.54547221  0.24397010    -0.10100
H178        H  0.80111227  0.56122153  0.26004774     0.09500
H179        H  0.64140732  0.70336393  0.28083355     0.07100
H180        H  0.61710969  0.51072220  0.22682376     0.06900
O181        O  0.71149321  0.41472306  0.21120900    -0.81000
C182        C  0.93168106  0.27041383  0.28072009     0.98400
O183        O  0.91902859  0.31143239  0.24547143    -0.70100
O184        O  0.85366309  0.37762746  0.17053089    -0.73700
Al185      Al  0.84701649  0.37292181  0.25807703     1.49000
C186        C  0.82982295  0.35200485  0.12234437     0.93600
O187        O  0.73679493  0.22697711  0.17269275    -0.79900
O188        O  0.71498062  0.24734224  0.30413357    -0.73500
Al189      Al  0.72980814  0.32102070  0.19577164     1.90100
O190        O  0.81039377  0.18866780  0.23258529    -0.72500
O191        O  0.78827585  0.31379150  0.37433331    -0.72400
O192        O  0.88798845  0.24910029  0.30642191    -0.78000
O193        O  0.84967056  0.38047754  0.34931021    -0.76200
O194        O  0.79194289  0.31665392  0.25086200    -1.12400
O195        O  0.78691644  0.44333070  0.27086290    -0.71600
C196        C  0.73672491  0.45747100  0.24457643     0.99100
C197        C  0.77067725  0.17938937  0.19079788     0.95500
Al198      Al  0.79984829  0.25568499  0.30005967     1.55600
O199        O  0.78326791  0.32327457  0.12660454    -0.76200
C200        C  0.81783755  0.35989716  0.38987887     0.99700
C201        C  0.66490995  0.27070391  0.28197761     0.94600
O202        O  0.66425471  0.31817264  0.25388229    -0.81500
C203        C  0.61410815  0.23042884  0.27700825     0.04000
C204        C  0.55047597  0.25117660  0.27003096    -0.12200
C205        C  0.50706456  0.20703630  0.26704178     0.01500
C206        C  0.52780343  0.14323010  0.27124188    -0.10700
C207        C  0.59136207  0.12233553  0.27687654     0.03900
C208        C  0.63345538  0.16561353  0.27548602    -0.10100
H209        H  0.53486774  0.30058706  0.26744082     0.09500
H210        H  0.49416126  0.11042848  0.27323931     0.07100
H211        H  0.68239123  0.14897361  0.27744236     0.06900
C212        C  0.11213932  0.20803210  0.72124903     0.04000
C213        C  0.10909817  0.14525243  0.73008702    -0.12200
C214        C  0.05121909  0.12552160  0.74167904     0.01500
C215        C  0.99689249  0.16907496  0.74880168    -0.10700
C216        C  0.99683209  0.23068444  0.73523436     0.03900
C217        C  0.05535545  0.25088504  0.72372127    -0.10100
H218        H  0.15112749  0.11138931  0.72569769     0.09500
H219        H  0.95300911  0.15225205  0.75777683     0.07100
H220        H  0.05674290  0.29903266  0.71506308     0.06900
N221        N  0.14614873  0.07369683  0.49778489    -0.35800
N222        N  0.05203446  0.97594203  0.42712925    -0.56300
N223        N  0.97733318  0.00564244  0.53967160    -0.35800
N224        N  0.05919419  0.11544573  0.60481154    -0.56300
C225        C  0.16986326  0.05912868  0.43974038     0.27800
C226        C  0.16062233  0.13114744  0.51976517     0.27800
C227        C  0.95874319  0.95049227  0.51650090     0.27800
C228        C  0.94803275  0.02460866  0.59440275     0.27800
C229        C  0.11196428  0.97576864  0.41019159     0.36400
C230        C  0.04974413  0.91948859  0.44623060     0.36400
C231        C  0.06047080  0.16809648  0.57772444     0.36400
C232        C  0.99846805  0.11429211  0.61891116     0.36400
C233        C  0.21091074  0.10071531  0.42935279    -0.21100
C234        C  0.20834665  0.14405854  0.48183598    -0.21100
C235        C  0.90932413  0.93936276  0.55241822    -0.21100
C236        C  0.90437982  0.98516227  0.60347903    -0.16700
C237        C  0.14819495  0.92033496  0.41887031    -0.22100
C238        C  0.10794155  0.88275865  0.43867237    -0.22100
C239        C  0.00075281  0.20192556  0.57868337    -0.22100
C240        C  0.96102765  0.16546140  0.60133843    -0.22100
C241        C  0.13488420  0.02862756  0.39391886    -0.17500
C242        C  0.11117267  0.17918600  0.54110789    -0.17500
C243        C  0.97576584  0.06294143  0.63989535    -0.17500
C244        C  0.99826097  0.90420734  0.47793569    -0.17500
H245        H  0.23247196  0.10525146  0.38564713     0.15400
H246        H  0.22699892  0.18843232  0.48396795     0.15400
H247        H  0.88514381  0.89833482  0.54664153     0.15400
H248        H  0.87577364  0.98668822  0.64440693     0.15400
H249        H  0.19813060  0.90877772  0.41188369     0.13700
H250        H  0.12153131  0.83601173  0.45108431     0.13700
H251        H  0.98633824  0.24531411  0.55952058     0.13700
H252        H  0.91061045  0.17510356  0.60466128     0.13700
H253        H  0.10795808  0.05465491  0.51273507     0.27000
H254        H  0.01746181  0.02274590  0.52685514     0.27000
C255        C  0.24472410  0.33362720  0.42985208     0.04000
C256        C  0.18252785  0.36075384  0.42929177    -0.12200
C257        C  0.14338009  0.37076495  0.48071296     0.01500
C258        C  0.16801357  0.35707090  0.53719974    -0.10700
C259        C  0.22976366  0.32617350  0.54060727     0.03900
C260        C  0.26834896  0.31376088  0.48588877    -0.10100
H261        H  0.16296911  0.37316741  0.38670309     0.09500
H262        H  0.13744221  0.36678555  0.57761485     0.07100
H263        H  0.31533594  0.28929052  0.48696652     0.06900
C264        C  0.33740921  0.97613742  0.81531350     0.04000
C265        C  0.35110187  0.02648535  0.78330325    -0.12200
C266        C  0.33771480  0.09042255  0.81026467     0.01500
C267        C  0.30692300  0.10274647  0.86823865    -0.10700
C268        C  0.29268476  0.05339699  0.89988037     0.03900
C269        C  0.30968967  0.99059122  0.87412698    -0.10100
H270        H  0.37142935  0.01588499  0.73764556     0.09500
H271        H  0.29234852  0.15110788  0.88821402     0.07100
H272        H  0.29707444  0.95291853  0.89816605     0.06900
O273        O  0.36760744  0.19319687  0.80381689    -0.81000
C274        C  0.24994350  0.30608137  0.60151219     0.98400
O275        O  0.29832423  0.26788443  0.60674200    -0.70100
O276        O  0.40256947  0.21853786  0.65744983    -0.73700
Al277      Al  0.31043671  0.21390684  0.67111143     1.49000
C278        C  0.44231680  0.24935532  0.68785410     0.93600
O279        O  0.35435393  0.37281176  0.78855265    -0.79900
O280        O  0.23537878  0.36468161  0.82370953    -0.73500
Al281      Al  0.35690809  0.28176184  0.79204553     1.90100
O282        O  0.28515887  0.39645590  0.71765482    -0.72500
O283        O  0.18045249  0.28098399  0.75041764    -0.72400
O284        O  0.21616990  0.32653742  0.64879989    -0.78000
O285        O  0.21850241  0.20323000  0.67788490    -0.76200
O286        O  0.30150825  0.27649258  0.73226153    -1.12400
O287        O  0.32309621  0.14821861  0.72350742    -0.71600
C288        C  0.34543325  0.14581097  0.77646946     0.99100
C289        C  0.33316422  0.40702479  0.74715666     0.95500
Al290      Al  0.23497492  0.33681332  0.73505469     1.55600
O291        O  0.42781815  0.27568059  0.74107924    -0.76200
C292        C  0.17402328  0.23104725  0.71569402     0.99700
C293        C  0.25695030  0.33491475  0.86710687     0.94600
O294        O  0.29602626  0.28729932  0.85458948    -0.81500
C295        C  0.50620899  0.25834971  0.66239002     0.04000
C296        C  0.55128726  0.29093624  0.69849117    -0.12200
C297        C  0.60847217  0.30243509  0.67045879     0.01500
C298        C  0.61525304  0.28640936  0.60678131    -0.10700
C299        C  0.58552466  0.23700212  0.58032667     0.03900
C300        C  0.52580955  0.23057322  0.60274895    -0.10100
H301        H  0.54354694  0.30401073  0.74759987     0.09500
H302        H  0.65736112  0.29447824  0.58356236     0.07100
H303        H  0.49910117  0.19701582  0.57788177     0.06900
O304        O  0.66988975  0.33318179  0.76003095    -0.81000
C305        C  0.93439335  0.26938177  0.72929549     0.98400
O306        O  0.88613447  0.24207833  0.72126777    -0.70100
O307        O  0.77547559  0.21773567  0.75103937    -0.73700
Al308      Al  0.80318968  0.27415428  0.69975052     1.49000
C309        C  0.75954517  0.22386575  0.80701042     0.93600
O310        O  0.78776824  0.38343390  0.88312445    -0.79900
O311        O  0.80636981  0.46961124  0.78945983    -0.73500
Al312      Al  0.73701107  0.35765875  0.81385305     1.90100
O313        O  0.88183931  0.37419513  0.84296484    -0.72500
O314        O  0.84067257  0.40996220  0.67765361    -0.72400
O315        O  0.92908782  0.32849944  0.73245386    -0.78000
O316        O  0.83086511  0.31484193  0.63278009    -0.76200
O317        O  0.79941034  0.34108241  0.75759950    -1.12400
O318        O  0.71992080  0.29764061  0.67320553    -0.71600
C319        C  0.66866014  0.31313764  0.70336689     0.99100
C320        C  0.84628608  0.37385178  0.88934494     0.95500
Al321      Al  0.85916109  0.39145134  0.76028531     1.55600
O322        O  0.75215205  0.27726327  0.83887785    -0.76200
C323        C  0.83234567  0.37250333  0.62918399     0.99700
C324        C  0.74786693  0.48440072  0.79486625     0.94600
O325        O  0.71343011  0.44160604  0.79589211    -0.81500
C326        C  0.71909742  0.55224381  0.80197257     0.04000
C327        C  0.65505666  0.56764824  0.81774410    -0.12200
C328        C  0.62630930  0.63081993  0.82893956     0.01500
C329        C  0.66249225  0.67861440  0.82254249    -0.10700
C330        C  0.72645389  0.66527549  0.80759413     0.03900
C331        C  0.75475495  0.60193996  0.79653211    -0.10100
H332        H  0.62879918  0.52976553  0.82280128     0.09500
H333        H  0.64091106  0.72732301  0.83143305     0.07100
H334        H  0.80431326  0.59166236  0.78578863     0.06900
O335        O  0.87020576  0.78209117  0.86003906    -0.81000
C336        C  0.66925495  0.86729145  0.73605284     0.98400
O337        O  0.68042232  0.84355023  0.78480792    -0.70100
O338        O  0.74468631  0.76775069  0.84657145    -0.73700
Al339      Al  0.74534757  0.85534890  0.84136930     1.49000
C340        C  0.76153780  0.71976005  0.80791344     0.93600
O341        O  0.86402286  0.76841497  0.68545774    -0.79900
O342        O  0.88545071  0.89372263  0.70837402    -0.73500
Al343      Al  0.86244585  0.78124340  0.77313771     1.90100
O344        O  0.78978105  0.83482901  0.65407972    -0.72500
O345        O  0.79796846  0.97099002  0.77962788    -0.72400
O346        O  0.70366608  0.90676029  0.72062000    -0.78000
O347        O  0.73271363  0.94773901  0.84738760    -0.76200
O348        O  0.80198974  0.84553155  0.77952642    -1.12400
O349        O  0.80494183  0.85977627  0.90767712    -0.71600
C350        C  0.84566302  0.81197318  0.91001853     0.99100
C351        C  0.83166511  0.78911243  0.64214639     0.95500
Al352      Al  0.79483265  0.89800116  0.72164942     1.55600
O353        O  0.80490759  0.72024584  0.76926968    -0.76200
C354        C  0.75945742  0.98865606  0.82361023     0.99700
C355        C  0.93465333  0.86597410  0.73069912     0.94600
O356        O  0.92915330  0.83297305  0.77386572    -0.81500
C357        C  0.51657537  0.80618637  0.67313228     0.04000
C358        C  0.56525297  0.81993307  0.71534946    -0.12200
C359        C  0.61846014  0.84573848  0.69491796     0.01500
C360        C  0.62224357  0.85392278  0.63260435    -0.10700
C361        C  0.56823024  0.85428219  0.59794034     0.03900
C362        C  0.52360035  0.81686891  0.61183134    -0.10100
H363        H  0.55943599  0.81532183  0.76370603     0.09500
H364        H  0.65986785  0.87699599  0.61679126     0.07100
H365        H  0.48422314  0.81396869  0.58135179     0.06900
O366        O  0.31905770  0.77751863  0.85711061    -0.81000
C367        C  0.28505650  0.72633853  0.59308768     0.98400
O368        O  0.25268994  0.71075395  0.63622467    -0.70100
O369        O  0.31318707  0.64981571  0.71992831    -0.73700
Al370      Al  0.25594282  0.72382997  0.72750427     1.49000
C371        C  0.36256537  0.63529088  0.74810307     0.93600
O372        O  0.44466968  0.76423338  0.73450722    -0.79900
O373        O  0.30815366  0.90085070  0.73663806    -0.73500
Al374      Al  0.37520318  0.77095549  0.78906943     1.90100
O375        O  0.40488831  0.82817229  0.67074613    -0.72500
O376        O  0.22276917  0.84438794  0.66773956    -0.72400
O377        O  0.32137289  0.76724881  0.60548191    -0.78000
O378        O  0.18820656  0.79107441  0.73584700    -0.76200
O379        O  0.31564507  0.77480277  0.73085036    -1.12400
O380        O  0.24627730  0.72524530  0.81625939    -0.71600
C381        C  0.27055301  0.75265414  0.86322078     0.99100
C382        C  0.45217790  0.79851974  0.69372202     0.95500
Al383      Al  0.31457545  0.83018691  0.67556811     1.55600
O384        O  0.38860897  0.67787897  0.78034111    -0.76200
C385        C  0.17715577  0.82902766  0.69700731     0.99700
C386        C  0.34033619  0.91000732  0.78418212     0.94600
O387        O  0.37154883  0.86367311  0.80639671    -0.81500
C388        C  0.09405772  0.88058316  0.27387972     0.04000
C389        C  0.09332709  0.94529419  0.27544759    -0.12200
C390        C  0.04055054  0.98703161  0.29574855     0.01500
C391        C  0.98318115  0.96432770  0.30385143    -0.10700
C392        C  0.98017707  0.89885864  0.29516021     0.03900
C393        C  0.03668878  0.85694389  0.28131649    -0.10100
H394        H  0.13645333  0.96423103  0.26798324     0.09500
H395        H  0.94178628  0.99714952  0.31803636     0.07100
H396        H  0.03620242  0.80649536  0.27828850     0.06900
O397        O  0.20420936  0.86870259  0.28425708    -0.81000
C398        C  0.34829003  0.63877185  0.19367914     0.98400
O399        O  0.28959948  0.65008810  0.19440268    -0.70100
O400        O  0.24855719  0.69595126  0.30616732    -0.73700
Al401      Al  0.23372303  0.72352006  0.22586077     1.49000
C402        C  0.25655774  0.72757768  0.35812255     0.93600
O403        O  0.36963453  0.80825183  0.32665115    -0.79900
O404        O  0.33475697  0.85377676  0.16410505    -0.73500
Al405      Al  0.28681352  0.83513688  0.30174574     1.90100
O406        O  0.41950962  0.79567476  0.23847183    -0.72500
O407        O  0.30956015  0.74332556  0.10899200    -0.72400
O408        O  0.38126660  0.68359940  0.19555314    -0.78000
O409        O  0.21427727  0.74687346  0.14427917    -0.76200
O410        O  0.29167831  0.77608628  0.23657362    -1.12400
O411        O  0.16257687  0.78302998  0.25535119    -0.71600
C412        C  0.15664365  0.84169347  0.27067399     0.99100
C413        C  0.41932218  0.80951171  0.29627646     0.95500
Al414      Al  0.35519596  0.76885624  0.18190317     1.55600
O415        O  0.25992088  0.78562938  0.36114410    -0.76200
C416        C  0.25161481  0.74943637  0.09981728     0.99700
C417        C  0.32953825  0.90218099  0.20416120     0.94600
O418        O  0.31415174  0.89883459  0.25914161    -0.81500
C419        C  0.38331637  0.45839618  0.19304975     0.04000
C420        C  0.44508928  0.44939166  0.16878277    -0.12200
C421        C  0.47277342  0.50061901  0.15301335     0.01500
C422        C  0.43912098  0.56080870  0.16180682    -0.10700
C423        C  0.37932432  0.57236971  0.18766935     0.03900
C424        C  0.35069576  0.52065853  0.20330575    -0.10100
H425        H  0.47001028  0.40218114  0.15865132     0.09500
H426        H  0.45859054  0.59936909  0.14497091     0.07100
H427        H  0.30303289  0.52839385  0.22097731     0.06900
C428        C  0.26704046  0.69552718  0.41524715     0.04000
C429        C  0.28292380  0.63011218  0.40710149    -0.12200
C430        C  0.29957339  0.59714595  0.45685209     0.01500
C431        C  0.29842188  0.62875162  0.51703226    -0.10700
C432        C  0.28265111  0.69444809  0.52802492     0.03900
C433        C  0.26815887  0.72814137  0.47642598    -0.10100
H434        H  0.28342274  0.60396388  0.36123531     0.09500
H435        H  0.30983174  0.60209555  0.55528257     0.07100
H436        H  0.25755111  0.77904020  0.48393419     0.06900
C437        C  0.11082662  0.84582774  0.67770002     0.04000
C438        C  0.10104030  0.83905307  0.61368900    -0.12200
C439        C  0.04111278  0.83899271  0.58997656     0.01500
C440        C  0.98970475  0.84973541  0.63037610    -0.10700
C441        C  0.99551933  0.86024260  0.69463627     0.03900
C442        C  0.05728894  0.85511445  0.71869941    -0.10100
H443        H  0.14070396  0.82699852  0.58189887     0.09500
H444        H  0.94457555  0.84299223  0.61166354     0.07100
H445        H  0.06367690  0.85731749  0.76801412     0.06900
C446        C  0.74166114  0.05797406  0.84449976     0.04000
C447        C  0.69273195  0.07606076  0.88761289    -0.12200
C448        C  0.66519788  0.13882872  0.90148914     0.01500
C449        C  0.69034527  0.18553555  0.87648814    -0.10700
C450        C  0.74101254  0.17048863  0.83494969     0.03900
C451        C  0.76593481  0.10633786  0.81722203    -0.10100
H452        H  0.67311729  0.03992988  0.90643522     0.09500
H453        H  0.66745971  0.23368977  0.88667489     0.07100
H454        H  0.80259776  0.09444384  0.78218615     0.06900
C455        C  0.11044821  0.25099539  0.29880509     0.04000
C456        C  0.11132673  0.23563953  0.35956668    -0.12200
C457        C  0.05633005  0.23020926  0.39074729     0.01500
C458        C  0.00029862  0.23663155  0.36092476    -0.10700
C459        C  0.99622912  0.25423245  0.30158222     0.03900
C460        C  0.05174153  0.26290768  0.27017642    -0.10100
H461        H  0.15517978  0.22740597  0.38300716     0.09500
H462        H  0.95870033  0.23067340  0.38631512     0.07100
H463        H  0.04932910  0.27803868  0.22475219     0.06900
O464        O  0.42807410  0.26416608  0.21667779    -0.81000
C465        C  0.17238016  0.25749568  0.27171310     0.98400
O466        O  0.22005464  0.22746505  0.29310153    -0.70100
O467        O  0.29603621  0.15385361  0.21577762    -0.73700
Al468      Al  0.30817379  0.21811319  0.27949009     1.49000
C469        C  0.33954261  0.13319030  0.17787693     0.93600
O470        O  0.29758796  0.26726818  0.10044661    -0.79900
O471        O  0.31170142  0.40118410  0.24150867    -0.73500
Al472      Al  0.36039988  0.26424633  0.16318983     1.90100
O473        O  0.23993929  0.34886262  0.15134190    -0.72500
O474        O  0.24971136  0.35035773  0.32516534    -0.72400
O475        O  0.17893310  0.29682245  0.23462288    -0.78000
O476        O  0.31760213  0.27508751  0.35259768    -0.76200
O477        O  0.30582800  0.27564685  0.22675411    -1.12400
O478        O  0.39870440  0.19812184  0.27621246    -0.71600
C479        C  0.44097540  0.22533274  0.25438031     0.99100
C480        C  0.26010481  0.31767768  0.10041010     0.95500
Al481      Al  0.24978105  0.34371222  0.23719891     1.55600
O482        O  0.36847842  0.17180624  0.15333445    -0.76200
C483        C  0.27577452  0.32104331  0.36719394     0.99700
C484        C  0.35248690  0.40135254  0.19976942     0.94600
O485        O  0.36777020  0.35222973  0.16178964    -0.81500
C486        C  0.85725159  0.77899695  0.96685947     0.04000
C487        C  0.83877393  0.80208992  0.02919584    -0.12200
C488        C  0.84948406  0.76131435  0.07638195     0.01500
C489        C  0.87606473  0.69857383  0.06005243    -0.10700
C490        C  0.89081407  0.67531510  0.99918630     0.03900
C491        C  0.88262226  0.71532374  0.95415841    -0.10100
H492        H  0.81696255  0.85023840  0.04087187     0.09500
H493        H  0.88451543  0.66682139  0.09474033     0.07100
H494        H  0.89656169  0.69540688  0.90768287     0.06900
N495        N  0.63215969  0.54745551  0.03811734    -0.35800
N496        N  0.55607562  0.65751530  0.99693728    -0.56300
N497        N  0.46603661  0.53559603  0.95586435    -0.35800
N498        N  0.54344856  0.42570837  0.99397749    -0.56300
C499        C  0.64828148  0.59765500  0.07492209     0.27800
C500        C  0.66048587  0.49448703  0.05868417     0.27800
C501        C  0.43860935  0.58911436  0.93598356     0.27800
C502        C  0.44664952  0.48623223  0.92079849     0.27800
C503        C  0.55574967  0.67379015  0.05804968     0.36400
C504        C  0.49651031  0.66944504  0.97915923     0.36400
C505        C  0.60434367  0.41494671  0.00784381     0.36400
C506        C  0.54019299  0.40990181  0.93296817     0.36400
C507        C  0.69838586  0.57649553  0.10960805    -0.21100
C508        C  0.70505194  0.51132475  0.10030682    -0.21100
C509        C  0.39122000  0.57416888  0.89695054    -0.21100
C510        C  0.39534562  0.50908256  0.88837297    -0.21100
C511        C  0.49726945  0.70319638  0.07878314    -0.22100
C512        C  0.45881829  0.69833418  0.02865021    -0.22100
C513        C  0.63954860  0.38812117  0.95633317    -0.22100
C514        C  0.59790626  0.38224435  0.90892977    -0.22100
C515        C  0.60403282  0.65146223  0.09535473    -0.17500
C516        C  0.62715789  0.44278616  0.06283172    -0.17500
C517        C  0.48971316  0.43236390  0.89814649    -0.17500
C518        C  0.47633549  0.63544663  0.92594930    -0.17500
H519        H  0.72122769  0.60475402  0.14459674     0.15400
H520        H  0.73446753  0.48014073  0.12610893     0.15400
H521        H  0.36327740  0.60585368  0.87024867     0.15400
H522        H  0.37051680  0.48199949  0.85428536     0.15400
H523        H  0.48261201  0.71874310  0.12610813     0.13700
H524        H  0.40854657  0.70880892  0.02962215     0.13700
H525        H  0.68969692  0.37684034  0.95317212     0.13700
H526        H  0.60909258  0.36612436  0.86108824     0.13700
H527        H  0.59457561  0.54846075  0.00922752     0.27000
H528        H  0.50750159  0.53347938  0.97899556     0.27000
N529        N  0.54045611  0.07034646  0.47206066    -0.35800
N530        N  0.45514891  0.09487598  0.59183871    -0.56300
N531        N  0.61464064  0.03217749  0.63809819    -0.35800
N532        N  0.66180455  0.03271353  0.51178357    -0.56300
C533        C  0.48469150  0.10704759  0.47327924     0.27800
C534        C  0.57765636  0.09072382  0.43221879     0.27800
C535        C  0.55807314  0.05182946  0.66578381     0.27800
C536        C  0.64718821  0.08168274  0.64584842     0.27800
C537        C  0.41265263  0.08480958  0.54783967     0.36400
C538        C  0.45014885  0.05308183  0.63144699     0.36400
C539        C  0.67948570  0.03527117  0.45329573     0.36400
C540        C  0.70775019  0.04941832  0.54902455     0.36400
C541        C  0.48784499  0.15529756  0.43825853    -0.21100
C542        C  0.54789006  0.14642702  0.41422870    -0.21100
C543        C  0.55765180  0.11073491  0.69874959    -0.21100
C544        C  0.61526867  0.12864849  0.68842898    -0.21100
C545        C  0.37154421  0.04654592  0.56666873    -0.22100
C546        C  0.39658607  0.02466999  0.61876910    -0.22100
C547        C  0.74223447  0.04257963  0.45165411    -0.22100
C548        C  0.75956472  0.05328356  0.51258754    -0.22100
C549        C  0.42986131  0.08304640  0.48553884    -0.17500
C550        C  0.63604294  0.05749354  0.41045241    -0.17500
C551        C  0.69046956  0.09360970  0.60098639    -0.17500
C552        C  0.50488988  0.02161170  0.65327940    -0.17500
H553        H  0.45011211  0.19055446  0.42819332     0.15400
H554        H  0.56740004  0.17785239  0.38729805     0.15400
H555        H  0.51873604  0.13893719  0.72453837     0.15400
H556        H  0.62853690  0.17470387  0.70333006     0.15400
H557        H  0.33683779  0.02515124  0.53858590     0.13700
H558        H  0.38446278  0.98307086  0.63638066     0.13700
H559        H  0.76884877  0.05238722  0.41282606     0.13700
H560        H  0.80109564  0.07335472  0.52805949     0.13700
H561        H  0.55075359  0.02978349  0.49326212     0.27000
H562        H  0.62734873  0.99131267  0.60775345     0.27000
N563        N  0.09075199  0.51864307  0.41393841    -0.35800
N564        N  0.94736262  0.47903583  0.47456251    -0.56300
N565        N  0.99103161  0.54560198  0.58653878    -0.35800
N566        N  0.13539375  0.59256154  0.52098043    -0.56300
C567        C  0.06352617  0.48200810  0.37045584     0.27800
C568        C  0.15172670  0.51517017  0.39857246     0.27800
C569        C  0.92862772  0.55758138  0.59698003     0.27800
C570        C  0.01903767  0.58292769  0.62873598     0.27800
C571        C  0.96344954  0.47836160  0.41499191     0.36400
C572        C  0.90432908  0.52989646  0.48800135     0.36400
C573        C  0.18219137  0.54591872  0.50470443     0.36400
C574        C  0.11847145  0.58643466  0.57895419     0.36400
C575        C  0.10624907  0.46086130  0.32243316    -0.21100
C576        C  0.16158862  0.48395379  0.33933661    -0.21100
C577        C  0.91737560  0.59255245  0.65444785    -0.21100
C578        C  0.97449797  0.61011907  0.67356925    -0.21100
C579        C  0.92780751  0.52618031  0.38929081    -0.22100
C580        C  0.88851260  0.55812615  0.43561863    -0.22100
C581        C  0.19921203  0.51351769  0.55426101    -0.22100
C582        C  0.15684240  0.53814076  0.60123580    -0.22100
C583        C  0.01956146  0.44594194  0.39010760    -0.17500
C584        C  0.19859689  0.52298409  0.44302834    -0.17500
C585        C  0.06260687  0.61781117  0.60599362    -0.17500
C586        C  0.88514688  0.55585258  0.54833222    -0.17500
H587        H  0.10110233  0.42496072  0.28410930     0.15400
H588        H  0.20602572  0.47102915  0.31527118     0.15400
H589        H  0.87240108  0.61444959  0.67376202     0.15400
H590        H  0.97977330  0.64969645  0.70795781     0.15400
H591        H  0.93295056  0.53911353  0.34345857     0.13700
H592        H  0.85711519  0.60109233  0.43290119     0.13700
H593        H  0.23306083  0.47175411  0.55389595     0.13700
H594        H  0.15252294  0.52066012  0.64513552     0.13700
H595        H  0.07148233  0.53123941  0.45802636     0.27000
H596        H  0.01245672  0.52905759  0.54410843     0.27000
C597        C  0.31169020  0.52794632  0.44450478    -0.15600
C598        C  0.26439921  0.49471390  0.42975718    -0.30800
H599        H  0.35953139  0.50529500  0.43748341     0.13400
H600        H  0.27488626  0.44610087  0.40971251     0.14000
C601        C  0.58086067  0.44954143  0.11505142    -0.15600
C602        C  0.53087478  0.49402934  0.11583845    -0.30800
H603        H  0.58242054  0.41296835  0.14505468     0.13400
H604        H  0.53093988  0.52866552  0.08416148     0.14000
C605        C  0.54185753  0.91904930  0.59235147    -0.15600
C606        C  0.51286708  0.95310106  0.64308975    -0.30800
H607        H  0.55893915  0.94152955  0.55532181     0.13400
H608        H  0.49961898  0.93077267  0.68196470     0.14000
C609        C  0.56082748  0.65029401  0.85334608    -0.15600
C610        C  0.52823702  0.61191224  0.88026862    -0.30800
H611        H  0.54210585  0.70001613  0.85737629     0.13400
H612        H  0.54837613  0.56378754  0.88127142     0.14000
C613        C  0.62614344  0.17814982  0.55778303    -0.15600
C614        C  0.68009142  0.15960357  0.58653601    -0.30800
H615        H  0.60113763  0.14168964  0.53693775     0.13400
H616        H  0.70396108  0.19326454  0.61509016     0.14000
C617        C  0.07757059  0.39877704  0.47413269    -0.15600
C618        C  0.04847655  0.39107988  0.41913704    -0.30800
H619        H  0.06009270  0.43673808  0.50925422     0.13400
H620        H  0.06606352  0.35201648  0.38550323     0.14000
C621        C  0.99901628  0.83683866  0.48265888    -0.15600
C622        C  0.03294353  0.80973201  0.52594676    -0.30800
H623        H  0.99531072  0.80772198  0.43882520     0.13400
H624        H  0.05608494  0.76230316  0.51300350     0.14000
C625        C  0.09632645  0.22413678  0.49592901    -0.15600
C626        C  0.05634823  0.20884299  0.45155496    -0.30800
H627        H  0.12953351  0.25518780  0.48786386     0.13400
H628        H  0.02583660  0.17363368  0.45749194     0.14000
C629        C  0.09669783  0.06952938  0.35306781    -0.15600
C630        C  0.04983203  0.05318130  0.31540831    -0.30800
H631        H  0.10592529  0.11733537  0.35563471     0.13400
H632        H  0.02141222  0.08969025  0.29417672     0.14000
C633        C  0.00829899  0.03111236  0.69053019    -0.15600
C634        C  0.04455895  0.05784658  0.73414722    -0.30800
H635        H  0.00477510  0.98160896  0.69085347     0.13400
H636        H  0.07035137  0.02827439  0.76468841     0.14000
C637        C  0.65486497  0.06087305  0.34600645    -0.15600
C638        C  0.61057180  0.06225459  0.30238612    -0.30800
H639        H  0.69723263  0.08141342  0.34051804     0.13400
H640        H  0.57280267  0.03442382  0.30760116     0.14000
C641        C  0.58136907  0.63042056  0.19942270    -0.15600
C642        C  0.59807718  0.67157891  0.16244454    -0.30800
H643        H  0.55450676  0.59505424  0.17932571     0.13400
H644        H  0.62629520  0.70782666  0.17926394     0.14000
C645        C  0.60377594  0.15358795  0.93282542    -0.15600
C646        C  0.55295638  0.15127133  0.89735892    -0.30800
H647        H  0.60160878  0.14013110  0.97889178     0.13400
H648        H  0.55630820  0.16206008  0.85028043     0.14000
C649        C  0.25692244  0.06679699  0.95916490    -0.15600
C650        C  0.28345273  0.05773180  0.01358261    -0.30800
H651        H  0.20676174  0.08005649  0.95779951     0.13400
H652        H  0.25426480  0.06186697  0.05478756     0.14000
C653        C  0.68851805  0.95065447  0.01012388    -0.15600
C654        C  0.69170800  0.01273807  0.03110091    -0.30800
H655        H  0.71954388  0.91650349  0.03128691     0.13400
H656        H  0.66975358  0.05038363  0.00777442     0.14000
C657        C  0.92449695  0.61173623  0.98338258    -0.15600
C658        C  0.92014202  0.57867764  0.92723714    -0.30800
H659        H  0.96439904  0.60026746  0.01198917     0.13400
H660        H  0.88124015  0.59162683  0.89791352     0.14000
C661        C  0.06916423  0.33577656  0.03730927    -0.15600
C662        C  0.03059035  0.29488604  0.01375186    -0.30800
H663        H  0.11547214  0.31812547  0.05179197     0.13400
H664        H  0.04622107  0.24464386  0.01053652     0.14000
C665        C  0.03286343  0.78870290  0.96425269    -0.15600
C666        C  0.07317615  0.83103823  0.97495556    -0.30800
H667        H  0.98485431  0.80426722  0.95328037     0.13400
H668        H  0.05754804  0.88053385  0.97234942     0.14000
C669        C  0.99963170  0.66418120  0.52437755    -0.15600
C670        C  0.03255947  0.67232173  0.57731735    -0.30800
H671        H  0.00996110  0.62202199  0.49166436     0.13400
H672        H  0.02131437  0.71518686  0.60925126     0.14000
C673        C  0.52704511  0.97376387  0.16486475    -0.15600
C674        C  0.54971614  0.92568882  0.12185312    -0.30800
H675        H  0.55953534  0.00184702  0.18940630     0.13400
H676        H  0.60026588  0.91723832  0.11819346     0.14000
C677        C  0.18834402  0.51784654  0.02162005    -0.15600
C678        C  0.19145587  0.55173839  0.07754803    -0.30800
H679        H  0.14894223  0.52958020  0.99244790     0.13400
H680        H  0.23032529  0.54050259  0.10741317     0.14000
C681        C  0.49361643  0.41466960  0.83075474    -0.15600
C682        C  0.51334018  0.45512896  0.79450929    -0.30800
H683        H  0.46224742  0.38181384  0.81381713     0.13400
H684        H  0.54559348  0.48545023  0.81356920     0.14000
C685        C  0.46136947  0.97060484  0.45807651    -0.15600
C686        C  0.42650120  0.02337076  0.44390584    -0.30800
H687        H  0.47654389  0.96865446  0.50464028     0.13400
H688        H  0.41433037  0.02680781  0.39609804     0.14000
C689        C  0.77175627  0.56148743  0.53327310    -0.15600
C690        C  0.82041482  0.59024853  0.55543979    -0.30800
H691        H  0.72531921  0.58778449  0.53372986     0.13400
H692        H  0.81268143  0.63953123  0.57460190     0.14000
loop_ 
_geom_bond_atom_site_label_1 
_geom_bond_atom_site_label_2 
_geom_bond_distance 
_geom_bond_site_symmetry_2 
_ccdc_geom_bond_type 
C1            C2   1.435       .  A
C1            C6   1.409       .  A
C1          C200   1.508       .  S
C2            C3   1.433       .  A
C2            H7   1.083       .  S
C3            C4   1.391       .  A
C3          C323   1.504       .  S
C4            C5   1.390       .  A
C4            H8   1.086       .  S
C5            C6   1.404       .  A
C5          C689   1.477       .  S
C6            H9   1.084       .  S
C10          C11   1.411       .  A
C10          C15   1.450       .  A
C10         C166   1.534       .  S
C11          C12   1.415       .  A
C11          H16   1.081       .  S
C12          C13   1.374       .  A
C12         C685   1.465       .  S
C13          C14   1.390       .  A
C13          H17   1.086       .  S
C14          C15   1.434       .  A
C14         C413   1.508       .  S
C15          H18   1.083       .  S
C19          C20   1.410       .  A
C19          C24   1.382       .  A
C19         C289   1.471       .  S
C20          C21   1.422       .  A
C20          H25   1.083       .  S
C21          C22   1.413       .  A
C21         C371   1.498       .  S
C22          C23   1.417       .  A
C22          H26   1.080       .  S
C23          C24   1.384       .  A
C23         C682   1.479       .  S
C24          H27   1.082       .  S
C28          C29   1.430       .  A
C28          C33   1.399       .  A
C28         C293   1.480       .  S
C29          C30   1.417   1_556  A
C29          H34   1.082       .  S
C30          C31   1.402       .  A
C30         C480   1.501       .  S
C31          C32   1.392       .  A
C31          H35   1.078       .  S
C32          C33   1.388   1_554  A
C32         C677   1.470       .  S
C33          H36   1.085       .  S
C37          C38   1.415   1_565  A
C37          C42   1.390       .  A
C37         C417   1.469       .  S
C38          C39   1.424       .  A
C38          H43   1.083       .  S
C39          C40   1.404       .  A
C39         C469   1.483       .  S
C40          C41   1.394   1_545  A
C40          H44   1.084       .  S
C41          C42   1.385       .  A
C41         C673   1.463       .  S
C42          H45   1.085       .  S
C46          C47   1.425       .  A
C46          C51   1.424       .  A
C46         C151   1.500       .  S
C47          C48   1.419       .  A
C47          H52   1.083       .  S
C48          C49   1.381       .  A
C48         C351   1.483       .  S
C49          C50   1.374       .  A
C49          H53   1.071       .  S
C50          C51   1.397       .  A
C50         C669   1.481       .  S
C51          H54   1.083       .  S
C55          C56   1.395       .  A
C55          C60   1.429       .  A
C55         C381   1.495       .  S
C56          C57   1.393       .  A
C56          H61   1.086       .  S
C57          C58   1.401   1_556  A
C57         C666   1.474       .  S
C58          C59   1.406       .  A
C58          H62   1.084       .  S
C59          C60   1.433   1_554  A
C59         C416   1.511       .  S
C60          H63   1.081       .  S
N64          C69   1.342       .  A
N64          C68   1.348       .  A
N64          H96   1.043   1_554  S
N65          C72   1.349       .  A
N65          C73   1.351       .  A
N66          C71   1.348   1_655  A
N66          C70   1.338   1_655  A
N66          H97   1.043   1_556  S
N67          C74   1.349       .  A
N67          C75   1.348       .  A
C68          C76   1.385       .  A
C68          C84   1.401       .  A
C69          C85   1.400   1_554  A
C69          C77   1.384       .  A
C70          C78   1.384       .  A
C70          C87   1.397   1_556  A
C71          C86   1.395   1_455  A
C71          C79   1.384       .  A
C72          C84   1.407       .  A
C72          C80   1.391       .  A
C73          C87   1.413       .  A
C73          C81   1.382       .  A
C74          C82   1.382       .  A
C74          C85   1.410       .  A
C75          C83   1.388   1_455  A
C75          C86   1.403   1_455  A
C76          C77   1.382       .  A
C76          H88   1.082       .  S
C77          H89   1.081   1_455  S
C78          C79   1.378       .  A
C78          H90   1.081       .  S
C79          H91   1.082       .  S
C80          C81   1.384       .  A
C80          H92   1.083       .  S
C81          H93   1.082       .  S
C82          C83   1.381   1_455  A
C82          H94   1.082       .  S
C83          H95   1.081       .  S
C84         C678   1.478       .  S
C85         C665   1.481       .  S
C86         C658   1.477       .  S
C87         C661   1.481       .  S
C98          C99   1.423       .  A
C98         C103   1.391   1_545  A
C98         C170   1.509   1_545  S
C99         C100   1.437       .  A
C99         H104   1.083       .  S
C100        C101   1.422       .  A
C100        C197   1.527       .  S
C101        C102   1.421       .  A
C101        H105   1.083       .  S
C102        C103   1.395   1_545  A
C102        C654   1.502       .  S
C103        H106   1.077       .  S
N107        C112   1.352       .  A
N107        C111   1.344       .  A
N107        H139   1.044   1_565  S
N108        C115   1.344   1_556  A
N108        C116   1.347       .  A
N109        C114   1.342       .  A
N109        C113   1.337   1_545  A
N109        H140   1.043       .  S
N110        C117   1.328       .  A
N110        C118   1.335       .  A
C111        C119   1.385       .  A
C111        C127   1.413       .  A
C112        C128   1.416   1_565  A
C112        C120   1.387       .  A
C113        C121   1.388       .  A
C113        C130   1.402       .  A
C114        C129   1.393       .  A
C114        C122   1.379   1_545  A
C115        C127   1.405       .  A
C115        C123   1.391       .  A
C116        C130   1.417       .  A
C116        C124   1.388   1_556  A
C117        C125   1.389       .  A
C117        C128   1.399   1_556  A
C118        C126   1.383       .  A
C118        C129   1.390       .  A
C119        C120   1.391       .  A
C119        H131   1.081       .  S
C120        H132   1.082       .  S
C121        C122   1.383       .  A
C121        H133   1.076       .  S
C122        H134   1.083       .  S
C123        C124   1.379       .  A
C123        H135   1.083       .  S
C124        H136   1.081       .  S
C125        C126   1.391       .  A
C125        H137   1.079   1_556  S
C126        H138   1.082       .  S
C127        C674   1.520       .  S
C128        C650   1.477       .  S
C129        C646   1.472       .  S
C130        C653   1.518   1_556  S
C141        C142   1.414       .  A
C141        C146   1.433   1_556  A
C141        C320   1.515       .  S
C142        C143   1.407   1_556  A
C142        H147   1.083       .  S
C143        C144   1.389       .  A
C143        C662   1.482   1_655  S
C144        C145   1.393       .  A
C144        H148   1.086       .  S
C145        C146   1.426       .  A
C145        C186   1.493       .  S
C146        H149   1.082       .  S
O150        C165   1.250       .  A
O150       Al158   1.898       .  S
C151        O161   1.270       .  A
C151        O152   1.264       .  A
O152       Al154   1.910       .  S
O153        C155   1.257       .  A
O153       Al154   1.903       .  S
Al154       O162   1.879       .  S
Al154       O164   1.948       .  S
Al154       O163   1.787       .  S
C155        C174   1.490       .  S
C155        O168   1.279       .  A
O156        C166   1.251       .  A
O156       Al158   1.873       .  S
O157        C170   1.258       .  A
O157       Al167   1.930       .  S
Al158       O171   1.928       .  S
Al158       O168   1.956       .  S
Al158       O163   1.775       .  S
O159        C166   1.292       .  A
O159       Al167   2.051       .  S
O160        C169   1.285       .  A
O160       Al167   2.004       .  S
O161       Al167   1.947       .  S
O162        C169   1.261       .  A
O163       Al167   1.778       .  S
O164        C165   1.272       .  A
C165        C488   1.489       .  S
C169        C392   1.500       .  S
C170        O171   1.271       .  A
C172        C173   1.434       .  A
C172        C177   1.405       .  A
C172        C196   1.503       .  S
C173        C174   1.420       .  A
C173        H178   1.083       .  S
C174        C175   1.388       .  A
C175        C176   1.387       .  A
C175        H179   1.084       .  S
C176        C177   1.410       .  A
C176        C641   1.475       .  S
C177        H180   1.082       .  S
O181        C196   1.281       .  A
O181       Al189   1.993       .  S
C182        C459   1.480       .  S
C182        O192   1.263       .  A
C182        O183   1.249       .  A
O183       Al185   1.902       .  S
O184        C186   1.268       .  A
O184       Al185   1.934       .  S
Al185       O193   1.981       .  S
Al185       O195   1.855       .  S
Al185       O194   1.802       .  S
C186        O199   1.258       .  A
O187        C197   1.286       .  A
O187       Al189   2.013       .  S
O188        C201   1.257       .  A
O188       Al198   1.869       .  S
Al189       O202   1.912       .  S
Al189       O199   1.909       .  S
Al189       O194   1.806       .  S
O190        C197   1.270       .  A
O190       Al198   1.920       .  S
O191        C200   1.263       .  A
O191       Al198   1.915       .  S
O192       Al198   1.897       .  S
O193        C200   1.278       .  A
O194       Al198   1.793       .  S
O195        C196   1.249       .  A
C201        C203   1.483       .  S
C201        O202   1.257       .  A
C203        C204   1.403       .  A
C203        C208   1.402       .  A
C204        C205   1.418       .  A
C204        H209   1.083       .  S
C205        C206   1.405       .  A
C205        C479   1.467       .  S
C206        C207   1.398       .  A
C206        H210   1.083       .  S
C207        C208   1.389       .  A
C207        C638   1.485       .  S
C208        H211   1.074       .  S
C212        C213   1.402       .  A
C212        C217   1.432       .  A
C212        C292   1.496       .  S
C213        C214   1.405       .  A
C213        H218   1.084       .  S
C214        C215   1.399   1_455  A
C214        C634   1.474       .  S
C215        C216   1.398       .  A
C215        H219   1.085       .  S
C216        C217   1.422   1_655  A
C216        C305   1.505       .  S
C217        H220   1.083       .  S
N221        C226   1.347       .  A
N221        C225   1.350       .  A
N221        H253   1.038       .  S
N222        C229   1.345       .  A
N222        C230   1.343       .  A
N223        C228   1.342       .  A
N223        C227   1.344   1_545  A
N223        H254   1.037   1_655  S
N224        C231   1.349       .  A
N224        C232   1.351   1_455  A
C225        C233   1.379       .  A
C225        C241   1.405       .  A
C226        C242   1.420       .  A
C226        C234   1.399       .  A
C227        C235   1.387       .  A
C227        C244   1.412       .  A
C228        C243   1.398       .  A
C228        C236   1.380   1_545  A
C229        C241   1.386   1_565  A
C229        C237   1.375       .  A
C230        C244   1.406   1_455  A
C230        C238   1.393       .  A
C231        C239   1.395       .  A
C231        C242   1.418       .  A
C232        C240   1.376       .  A
C232        C243   1.396       .  A
C233        C234   1.381       .  A
C233        H245   1.083       .  S
C234        H246   1.082       .  S
C235        C236   1.387       .  A
C235        H247   1.080       .  S
C236        H248   1.080       .  S
C237        C238   1.369       .  A
C237        H249   1.081       .  S
C238        H250   1.081       .  S
C239        C240   1.369   1_455  A
C239        H251   1.082   1_455  S
C240        H252   1.082       .  S
C241        C629   1.506       .  S
C242        C625   1.477       .  S
C243        C633   1.503   1_655  S
C244        C621   1.468       .  S
C255        C256   1.394       .  A
C255        C260   1.422       .  A
C255        C483   1.500       .  S
C256        C257   1.382       .  A
C256        H261   1.073       .  S
C257        C258   1.396       .  A
C257        C617   1.485       .  S
C258        C259   1.417       .  A
C258        H262   1.083       .  S
C259        C260   1.432       .  A
C259        C274   1.499       .  S
C260        H263   1.083       .  S
C264        C265   1.426   1_565  A
C264        C269   1.397       .  A
C264        C386   1.494       .  S
C265        C266   1.422       .  A
C265        H270   1.074       .  S
C266        C267   1.408       .  A
C266        C288   1.509       .  S
C267        C268   1.406       .  A
C267        H271   1.084       .  S
C268        C269   1.401   1_545  A
C268        C649   1.483       .  S
C269        H272   1.085       .  S
O273        C288   1.267       .  A
O273       Al281   1.944       .  S
C274        O284   1.261       .  A
C274        O275   1.258       .  A
O275       Al277   1.934       .  S
O276        C278   1.289       .  A
O276       Al277   2.029       .  S
Al277       O285   2.036       .  S
Al277       O287   1.925       .  S
Al277       O286   1.766       .  S
C278        C295   1.532       .  S
C278        O291   1.248       .  A
O279        C289   1.286       .  A
O279       Al281   1.969       .  S
O280        C293   1.268       .  A
O280       Al290   1.954       .  S
Al281       O294   1.876       .  S
Al281       O291   1.872       .  S
Al281       O286   1.777       .  S
O282        C289   1.253       .  A
O282       Al290   1.861       .  S
O283        C292   1.260       .  A
O283       Al290   1.850       .  S
O284       Al290   1.920       .  S
O285        C292   1.298       .  A
O286       Al290   1.803       .  S
O287        C288   1.259       .  A
C293        O294   1.242       .  A
C295        C296   1.452       .  A
C295        C300   1.403       .  A
C296        C297   1.442       .  A
C296        H301   1.081       .  S
C297        C298   1.393       .  A
C297        C319   1.517       .  S
C298        C299   1.381       .  A
C298        H302   1.085       .  S
C299        C300   1.409       .  A
C299        C613   1.473       .  S
C300        H303   1.079       .  S
O304        C319   1.260       .  A
O304       Al312   1.953       .  S
C305        O315   1.258       .  A
C305        O306   1.265       .  A
O306       Al308   1.916       .  S
O307        C309   1.256       .  A
O307       Al308   1.905       .  S
Al308       O316   1.931       .  S
Al308       O318   1.915       .  S
Al308       O317   1.787       .  S
C309        C450   1.469       .  S
C309        O322   1.259       .  A
O310        C320   1.264       .  A
O310       Al312   1.938       .  S
O311        C324   1.264       .  A
O311       Al321   1.941       .  S
Al312       O325   1.906       .  S
Al312       O322   1.872       .  S
Al312       O317   1.792       .  S
O313        C320   1.271       .  A
O313       Al321   1.941       .  S
O314        C323   1.276       .  A
O314       Al321   1.930       .  S
O315       Al321   1.934       .  S
O316        C323   1.261       .  A
O317       Al321   1.790       .  S
O318        C319   1.271       .  A
C324        C326   1.502       .  S
C324        O325   1.262       .  A
C326        C327   1.411       .  A
C326        C331   1.416       .  A
C327        C328   1.412       .  A
C327        H332   1.071       .  S
C328        C329   1.393       .  A
C328        C609   1.498       .  S
C329        C330   1.403       .  A
C329        H333   1.085       .  S
C330        C331   1.412       .  A
C330        C340   1.479       .  S
C331        H334   1.083       .  S
O335        C350   1.272       .  A
O335       Al343   1.905       .  S
C336        C359   1.504       .  S
C336        O346   1.276       .  A
C336        O337   1.250       .  A
O337       Al339   1.893       .  S
O338        C340   1.263       .  A
O338       Al339   1.909       .  S
Al339       O347   1.963       .  S
Al339       O349   1.942       .  S
Al339       O348   1.794       .  S
C340        O353   1.262       .  A
O341        C351   1.270       .  A
O341       Al343   1.900       .  S
O342        C355   1.279       .  A
O342       Al352   1.967       .  S
Al343       O356   1.934       .  S
Al343       O353   1.920       .  S
Al343       O348   1.767       .  S
O344        C351   1.248       .  A
O344       Al352   1.891       .  S
O345        C354   1.257       .  A
O345       Al352   1.900       .  S
O346       Al352   1.954       .  S
O347        C354   1.277       .  A
O348       Al352   1.795       .  S
O349        C350   1.271       .  A
C350        C486   1.513       .  S
C354        C446   1.505   1_565  S
C355        C441   1.514       .  S
C355        O356   1.266       .  A
C357        C358   1.436       .  A
C357        C362   1.399       .  A
C357        C382   1.497       .  S
C358        C359   1.435       .  A
C358        H363   1.082       .  S
C359        C360   1.399       .  A
C360        C361   1.392       .  A
C360        H364   1.085       .  S
C361        C362   1.392       .  A
C361        C605   1.458       .  S
C362        H365   1.085       .  S
O366        C381   1.252       .  A
O366       Al374   1.896       .  S
C367        C432   1.503       .  S
C367        O377   1.261       .  A
C367        O368   1.276       .  A
O368       Al370   1.981       .  S
O369        C371   1.257       .  A
O369       Al370   1.876       .  S
Al370       O378   1.911       .  S
Al370       O380   1.946       .  S
Al370       O379   1.797       .  S
C371        O384   1.277       .  A
O372        C382   1.251       .  A
O372       Al374   1.893       .  S
O373        C386   1.261       .  A
O373       Al383   1.884       .  S
Al374       O387   1.979       .  S
Al374       O384   1.975       .  S
Al374       O379   1.813       .  S
O375        C382   1.272       .  A
O375       Al383   1.948       .  S
O376        C385   1.275       .  A
O376       Al383   1.978       .  S
O377       Al383   1.905       .  S
O378        C385   1.254       .  A
O379       Al383   1.802       .  S
O380        C381   1.268       .  A
C385        C437   1.506       .  S
C386        O387   1.279       .  A
C388        C389   1.390       .  A
C388        C393   1.417       .  A
C388        C412   1.491       .  S
C389        C390   1.390       .  A
C389        H394   1.085       .  S
C390        C391   1.410   1_455  A
C390        C630   1.477   1_565  S
C391        C392   1.411       .  A
C391        H395   1.083       .  S
C392        C393   1.428   1_655  A
C393        H396   1.083       .  S
O397        C412   1.264       .  A
O397       Al405   1.894       .  S
C398        C423   1.489       .  S
C398        O408   1.271       .  A
C398        O399   1.259       .  A
O399       Al401   1.912       .  S
O400        C402   1.272       .  A
O400       Al401   1.937       .  S
Al401       O409   1.945       .  S
Al401       O411   1.921       .  S
Al401       O410   1.793       .  S
C402        C428   1.505       .  S
C402        O415   1.257       .  A
O403        C413   1.266       .  A
O403       Al405   1.909       .  S
O404        C417   1.267       .  A
O404       Al414   1.916       .  S
Al405       O418   1.908       .  S
Al405       O415   1.917       .  S
Al405       O410   1.779       .  S
O406        C413   1.260       .  A
O406       Al414   1.957       .  S
O407        C416   1.261       .  A
O407       Al414   1.934       .  S
O408       Al414   1.912       .  S
O409        C416   1.272       .  A
O410       Al414   1.795       .  S
O411        C412   1.257       .  A
C417        O418   1.259       .  A
C419        C420   1.415       .  A
C419        C424   1.423       .  A
C419        C484   1.497       .  S
C420        C421   1.402       .  A
C420        H425   1.083       .  S
C421        C422   1.392       .  A
C421        C602   1.475       .  S
C422        C423   1.388       .  A
C422        H426   1.083       .  S
C423        C424   1.421       .  A
C424        H427   1.083       .  S
C428        C429   1.396       .  A
C428        C433   1.431       .  A
C429        C430   1.396       .  A
C429        H434   1.085       .  S
C430        C431   1.401       .  A
C430        C597   1.471       .  S
C431        C432   1.403       .  A
C431        H435   1.084       .  S
C432        C433   1.431       .  A
C433        H436   1.083       .  S
C437        C438   1.407       .  A
C437        C442   1.438       .  A
C438        C439   1.396       .  A
C438        H443   1.085       .  S
C439        C440   1.394   1_455  A
C439        C622   1.481       .  S
C440        C441   1.402       .  A
C440        H444   1.078       .  S
C441        C442   1.431   1_655  A
C442        H445   1.082       .  S
C446        C447   1.397       .  A
C446        C451   1.421       .  A
C447        C448   1.401       .  A
C447        H452   1.060       .  S
C448        C449   1.375       .  A
C448        C645   1.470       .  S
C449        C450   1.398       .  A
C449        H453   1.086       .  S
C450        C451   1.422       .  A
C451        H454   1.083       .  S
C455        C456   1.408       .  A
C455        C460   1.423       .  A
C455        C465   1.492       .  S
C456        C457   1.394       .  A
C456        H461   1.083       .  S
C457        C458   1.375       .  A
C457        C626   1.461       .  S
C458        C459   1.396   1_455  A
C458        H462   1.085   1_455  S
C459        C460   1.425   1_655  A
C460        H463   1.083       .  S
O464        C479   1.254       .  A
O464       Al472   1.874       .  S
C465        O475   1.266       .  A
C465        O466   1.266       .  A
O466       Al468   1.906       .  S
O467        C469   1.249       .  A
O467       Al468   1.880       .  S
Al468       O476   1.916       .  S
Al468       O478   1.946       .  S
Al468       O477   1.794       .  S
C469        O482   1.273       .  A
O470        C480   1.268       .  A
O470       Al472   1.932       .  S
O471        C484   1.267       .  A
O471       Al481   1.934       .  S
Al472       O485   1.929       .  S
Al472       O482   1.963       .  S
Al472       O477   1.791       .  S
O473        C480   1.269       .  A
O473       Al481   1.904       .  S
O474        C483   1.271       .  A
O474       Al481   1.909       .  S
O475       Al481   1.939       .  S
O476        C483   1.258       .  A
O477       Al481   1.766       .  S
O478        C479   1.271       .  A
C484        O485   1.266       .  A
C486        C487   1.427   1_556  A
C486        C491   1.403       .  A
C487        C488   1.438       .  A
C487        H492   1.081       .  S
C488        C489   1.400       .  A
C489        C490   1.381   1_554  A
C489        H493   1.085       .  S
C490        C491   1.386       .  A
C490        C657   1.465       .  S
C491        H494   1.077       .  S
N495        C500   1.353       .  A
N495        C499   1.349       .  A
N495        H527   1.029       .  S
N496        C503   1.337   1_556  A
N496        C504   1.347       .  A
N497        C502   1.345       .  A
N497        C501   1.349       .  A
N497        H528   1.028       .  S
N498        C505   1.347   1_556  A
N498        C506   1.338       .  A
C499        C507   1.384       .  A
C499        C515   1.426       .  A
C500        C516   1.417       .  A
C500        C508   1.378       .  A
C501        C509   1.379       .  A
C501        C518   1.407       .  A
C502        C517   1.424       .  A
C502        C510   1.386       .  A
C503        C515   1.399       .  A
C503        C511   1.385       .  A
C504        C518   1.396       .  A
C504        C512   1.383   1_556  A
C505        C513   1.377   1_554  A
C505        C516   1.394       .  A
C506        C514   1.381       .  A
C506        C517   1.401       .  A
C507        C508   1.383       .  A
C507        H519   1.078       .  S
C508        H520   1.077       .  S
C509        C510   1.384       .  A
C509        H521   1.080       .  S
C510        H522   1.076       .  S
C511        C512   1.378       .  A
C511        H523   1.079       .  S
C512        H524   1.079       .  S
C513        C514   1.378       .  A
C513        H525   1.079       .  S
C514        H526   1.075       .  S
C515        C642   1.475       .  S
C516        C601   1.496       .  S
C517        C681   1.473       .  S
C518        C610   1.492       .  S
N529        C534   1.336       .  A
N529        C533   1.350       .  A
N529        H561   1.040       .  S
N530        C537   1.348       .  A
N530        C538   1.340       .  A
N531        C536   1.347       .  A
N531        C535   1.354       .  A
N531        H562   1.039   1_545  S
N532        C539   1.343       .  A
N532        C540   1.342       .  A
C533        C541   1.376       .  A
C533        C549   1.392       .  A
C534        C550   1.416       .  A
C534        C542   1.389       .  A
C535        C543   1.378       .  A
C535        C552   1.405       .  A
C536        C551   1.423       .  A
C536        C544   1.393       .  A
C537        C549   1.405       .  A
C537        C545   1.384       .  A
C538        C552   1.400       .  A
C538        C546   1.391       .  A
C539        C547   1.386       .  A
C539        C550   1.410       .  A
C540        C548   1.390       .  A
C540        C551   1.402       .  A
C541        C542   1.379       .  A
C541        H553   1.082       .  S
C542        H554   1.076       .  S
C543        C544   1.377       .  A
C543        H555   1.082       .  S
C544        H556   1.081       .  S
C545        C546   1.372       .  A
C545        H557   1.083       .  S
C546        H558   1.082   1_545  S
C547        C548   1.383       .  A
C547        H559   1.082       .  S
C548        H560   1.083       .  S
C549        C686   1.489       .  S
C550        C637   1.478       .  S
C551        C614   1.486       .  S
C552        C606   1.453   1_545  S
N563        C568   1.349       .  A
N563        C567   1.344       .  A
N563        H595   1.038       .  S
N564        C571   1.344       .  A
N564        C572   1.343       .  A
N565        C570   1.344   1_655  A
N565        C569   1.352       .  A
N565        H596   1.035   1_655  S
N566        C573   1.342       .  A
N566        C574   1.345       .  A
C567        C575   1.387       .  A
C567        C583   1.403       .  A
C568        C584   1.416       .  A
C568        C576   1.383       .  A
C569        C577   1.384       .  A
C569        C586   1.420       .  A
C570        C585   1.406       .  A
C570        C578   1.389   1_455  A
C571        C583   1.390   1_655  A
C571        C579   1.383       .  A
C572        C586   1.404       .  A
C572        C580   1.386       .  A
C573        C581   1.387       .  A
C573        C584   1.403       .  A
C574        C582   1.383       .  A
C574        C585   1.394       .  A
C575        C576   1.388       .  A
C575        H587   1.082       .  S
C576        H588   1.080       .  S
C577        C578   1.388       .  A
C577        H589   1.083       .  S
C578        H590   1.081       .  S
C579        C580   1.373       .  A
C579        H591   1.082       .  S
C580        H592   1.082       .  S
C581        C582   1.379       .  A
C581        H593   1.082       .  S
C582        H594   1.082       .  S
C583        C618   1.480       .  S
C584        C598   1.484       .  S
C585        C670   1.478       .  S
C586        C690   1.492       .  S
C597        C598   1.340       .  D
C597        H599   1.085       .  S
C598        H600   1.078       .  S
C601        C602   1.346       .  D
C601        H603   1.085       .  S
C602        H604   1.081       .  S
C605        C606   1.353       .  D
C605        H607   1.082       .  S
C606        H608   1.084       .  S
C609        C610   1.342       .  D
C609        H611   1.088       .  S
C610        H612   1.074       .  S
C613        C614   1.363       .  D
C613        H615   1.068       .  S
C614        H616   1.080       .  S
C617        C618   1.359       .  D
C617        H619   1.077       .  S
C618        H620   1.073       .  S
C621        C622   1.343   1_655  D
C621        H623   1.086       .  S
C622        H624   1.081       .  S
C625        C626   1.339       .  D
C625        H627   1.072       .  S
C626        H628   1.088       .  S
C629        C630   1.360       .  D
C629        H631   1.070       .  S
C630        H632   1.086       .  S
C633        C634   1.355       .  D
C633        H635   1.081   1_545  S
C634        H636   1.086       .  S
C637        C638   1.352       .  D
C637        H639   1.081       .  S
C638        H640   1.088       .  S
C641        C642   1.355       .  D
C641        H643   1.070       .  S
C642        H644   1.082       .  S
C645        C646   1.348       .  D
C645        H647   1.085       .  S
C646        H648   1.087       .  S
C649        C650   1.347   1_556  D
C649        H651   1.085       .  S
C650        H652   1.085       .  S
C653        C654   1.370   1_565  D
C653        H655   1.079       .  S
C654        H656   1.072       .  S
C657        C658   1.348       .  D
C657        H659   1.087   1_556  S
C658        H660   1.087       .  S
C661        C662   1.348       .  D
C661        H663   1.085       .  S
C662        H664   1.085       .  S
C665        C666   1.343       .  D
C665        H667   1.084   1_455  S
C666        H668   1.085       .  S
C669        C670   1.364   1_655  D
C669        H671   1.081   1_655  S
C670        H672   1.085       .  S
C673        C674   1.347       .  D
C673        H675   1.085   1_565  S
C674        H676   1.084       .  S
C677        C678   1.349       .  D
C677        H679   1.087   1_554  S
C678        H680   1.086       .  S
C681        C682   1.357       .  D
C681        H683   1.077       .  S
C682        H684   1.067       .  S
C685        C686   1.351   1_565  D
C685        H687   1.074       .  S
C686        H688   1.087       .  S
C689        C690   1.350       .  D
C689        H691   1.085       .  S
C690        H692   1.083       .  S
