geometry optimzed in LAMMPS
_audit_creation_date              2020-12-01 
_audit_creation_method            'lammps2cif' 
_symmetry_space_group_name_H-M    'P1' 
_symmetry_Int_Tables_number       1 
_symmetry_cell_setting            triclinic 
loop_ 
_symmetry_equiv_pos_as_xyz 
  x,y,z 
_cell_length_a                    51.46911907 
_cell_length_b                    51.45323178476088 
_cell_length_c                    51.4437891229892 
_cell_angle_alpha                 89.82589166827134 
_cell_angle_beta                  89.82695812201875 
_cell_angle_gamma                 89.50878840776979 
loop_ 
_atom_site_label 
_atom_site_type_symbol 
_atom_site_fract_x 
_atom_site_fract_y 
_atom_site_fract_z 
_atom_site_charge 
C1          C  0.28713652  0.87841031  0.64538778     0.44100
N2          N  0.32908936  0.87682480  0.65100180     0.03000
C3          C  0.38479330  0.82405564  0.76143898    -0.04900
H4          H  0.32176211  0.90736121  0.77579431     0.08500
C5          C  0.38397094  0.95786377  0.72756714    -0.05200
Co6        Co  0.33844673  0.84625585  0.69975630     0.74200
N7          N  0.33326155  0.88181847  0.74451520    -0.24400
Co8        Co  0.37322435  0.88035979  0.74467315     0.74100
C9          C  0.36731098  0.96022513  0.75034183     0.44200
N10         N  0.38728220  0.93061245  0.66741386     0.02600
N11         N  0.37382399  0.92012072  0.74259205     0.02700
N12         N  0.36123090  0.80194535  0.73189713    -0.45200
H13         H  0.27927731  0.85544820  0.68229701     0.08500
N14         N  0.31997242  0.86885213  0.72715643     0.03000
N15         N  0.41322228  0.87896760  0.74354399     0.02800
C16         C  0.45304592  0.87142045  0.75218757     0.44400
N17         N  0.37345500  0.91922302  0.64904617    -0.23800
C18         C  0.35585108  0.79885587  0.67072395    -0.04800
N19         N  0.31057480  0.88554575  0.63472485    -0.44900
N20         N  0.42864153  0.86748894  0.76061557    -0.45200
C21         C  0.37013113  0.79237825  0.64772828     0.44100
N22         N  0.35921001  0.82734690  0.72844542     0.03000
N23         N  0.41434340  0.87676048  0.64993043    -0.23900
N24         N  0.31836673  0.86473979  0.67101107    -0.24400
N25         N  0.42589483  0.89025363  0.66844434     0.02700
H26         H  0.43139247  0.85479341  0.61793148     0.08500
H27         H  0.46706505  0.89562096  0.71739079     0.08600
N28         N  0.37255947  0.84058145  0.74556057    -0.24400
N29         N  0.38660458  0.93217344  0.72406167    -0.24000
N30         N  0.36989996  0.83437829  0.65220048     0.03000
C31         C  0.29128602  0.88939399  0.74891008     0.44400
C32         C  0.36386273  0.93884664  0.63385952    -0.05300
N33         N  0.42607125  0.89084190  0.72493829    -0.24000
H34         H  0.39289387  0.97290416  0.71593022     0.08600
N35         N  0.29463852  0.87234228  0.72947453    -0.45200
H36         H  0.35176885  0.93637725  0.61693059     0.08500
C37         C  0.45867841  0.87587992  0.64690921     0.44200
C38         C  0.29258575  0.86474207  0.66900724    -0.04800
Co39       Co  0.37171906  0.87676822  0.64898505     0.73800
N40         N  0.38805451  0.95617654  0.66575378    -0.45000
C41         C  0.37780646  0.79870290  0.75179521     0.44500
N42         N  0.37855677  0.81518080  0.63676050    -0.44900
Co43       Co  0.40659954  0.91110999  0.69614080     0.73900
C44         C  0.45156073  0.88741476  0.72892633    -0.05300
C45         C  0.31668533  0.89519926  0.75949764    -0.04800
N46         N  0.35675944  0.82465187  0.67206703    -0.24400
N47         N  0.36235521  0.93616088  0.75901104    -0.45100
H48         H  0.39690356  0.82917279  0.77774553     0.08500
C49         C  0.43394539  0.86660841  0.63504274    -0.05300
Cl50       Cl  0.37252000  0.87858978  0.69681302    -0.48300
C51         C  0.37392061  0.96342838  0.64531499     0.44300
H52         H  0.34575264  0.78623311  0.68409146     0.08500
N53         N  0.45149997  0.89024528  0.66720241    -0.45000
C54         C  0.24387772  0.95351597  0.87740100     0.44100
N55         N  0.21863425  0.92590341  0.89480082     0.03000
C56         C  0.21268010  0.79476028  0.87545351    -0.04900
H57         H  0.20278689  0.85738198  0.78885946     0.08500
C58         C  0.12380427  0.88823196  0.82255691    -0.05200
Co59       Co  0.23332482  0.87188943  0.88180536     0.74200
N60         N  0.21252340  0.86039958  0.82963448    -0.24400
Co61       Co  0.18361541  0.84161443  0.84988414     0.74100
C62         C  0.13505505  0.87770702  0.79788770     0.44200
N63         N  0.14186229  0.92110408  0.88567756     0.02600
N64         N  0.15613602  0.86283712  0.83057866     0.02700
N65         N  0.24466766  0.81616988  0.89621539    -0.45200
H66         H  0.26908191  0.92166426  0.85845643     0.08500
N67         N  0.23144720  0.87209019  0.84195391     0.03000
N68         N  0.15461609  0.82368681  0.86960820     0.02800
C69         C  0.13081485  0.79200576  0.88185477     0.44400
N70         N  0.16219649  0.93052732  0.89807133    -0.23800
C71         C  0.25049444  0.85982219  0.93807580    -0.04800
N72         N  0.22333479  0.95106611  0.89337841    -0.44900
N73         N  0.15182433  0.79829817  0.86824559    -0.45200
C74         C  0.24167601  0.86766521  0.96368656     0.44100
N75         N  0.22995358  0.83217107  0.88252779     0.03000
N76         N  0.16111446  0.89102659  0.93729456    -0.23900
N77         N  0.23545114  0.91182232  0.88154780    -0.24400
N78         N  0.14074460  0.87919696  0.92726426     0.02700
H79         H  0.17377172  0.90006092  0.97597235     0.08500
H80         H  0.10296544  0.82036865  0.90377482     0.08600
N81         N  0.21102364  0.82031294  0.87036434    -0.24400
N82         N  0.13831651  0.87760210  0.84211642    -0.24000
N83         N  0.21749318  0.88580227  0.93522969     0.03000
C84         C  0.23775486  0.88109900  0.80221698     0.44400
C85         C  0.16136241  0.95644472  0.89836455    -0.05300
N86         N  0.13648343  0.83599263  0.88328912    -0.24000
H87         H  0.10739440  0.90116842  0.82511545     0.08600
N88         N  0.24731040  0.88454987  0.82617156    -0.45200
H89         H  0.17516607  0.96890328  0.90790279     0.08500
C90         C  0.13650247  0.87777255  0.96941759     0.44200
C91         C  0.25242429  0.92762744  0.86997285    -0.04800
Co92       Co  0.18983565  0.90842259  0.91643961     0.73800
N93         N  0.12656683  0.94063143  0.87715208    -0.45000
C94         C  0.23444647  0.79250515  0.89323840     0.44500
N95         N  0.22165913  0.88438628  0.96056358    -0.44900
Co96       Co  0.13779287  0.87858963  0.88466770     0.73900
C97         C  0.12023032  0.81709334  0.89224581    -0.05300
C98         C  0.21526094  0.86450685  0.80405749    -0.04800
N99         N  0.23424706  0.87189924  0.92174232    -0.24400
N100        N  0.15467932  0.86233548  0.80501460    -0.45100
H101        H  0.19989599  0.77987433  0.86831198     0.08500
C102        C  0.15993212  0.89108608  0.96312078    -0.05300
Cl103      Cl  0.18555026  0.87518074  0.88320212    -0.48300
C104        C  0.13812506  0.96343650  0.88462799     0.44300
H105        H  0.26697532  0.84776858  0.93262829     0.08500
N106        N  0.12504354  0.87074989  0.94636864    -0.45000
C107        C  0.37545088  0.74779006  0.80833589     0.44100
N108        N  0.35735628  0.72449176  0.83695359     0.03000
C109        C  0.38507654  0.71950719  0.96673550    -0.04900
H110        H  0.46663359  0.71321724  0.90221494     0.08500
C111        C  0.43449761  0.63006194  0.87346107    -0.05200
Co112      Co  0.37174504  0.73969456  0.89024930     0.74200
N113        N  0.42533185  0.72051471  0.89905748    -0.24400
Co114      Co  0.40713964  0.69059781  0.91863192     0.74100
C115        C  0.45921217  0.64193988  0.88261643     0.44200
N116        N  0.37027395  0.64841423  0.84122574     0.02600
N117        N  0.42650540  0.66378775  0.89671074     0.02700
N118        N  0.36187759  0.75139221  0.94700173    -0.45200
H119        H  0.39443408  0.77404932  0.83875871     0.08500
N120        N  0.41172024  0.73945317  0.88836021     0.03000
N121        N  0.38894134  0.66091589  0.93762227     0.02800
C122        C  0.37698131  0.63765615  0.97006311     0.44400
N123        N  0.35651544  0.66827262  0.83212470    -0.23800
C124        C  0.31484240  0.75246172  0.90649118    -0.04800
N125        N  0.35947449  0.72765351  0.81158416    -0.44900
N126        N  0.39053781  0.65846303  0.96309494    -0.45200
C127        C  0.28970229  0.74116548  0.90070580     0.44100
N128        N  0.37340962  0.73606638  0.92994705     0.03000
N129        N  0.31867949  0.66567368  0.87245255    -0.23900
N130        N  0.37030955  0.74181672  0.85030725    -0.24400
N131        N  0.32961828  0.64529903  0.88380485     0.02700
H132        H  0.27971972  0.67702416  0.86260580     0.08500
H133        H  0.35441331  0.60989519  0.94270282     0.08600
N134        N  0.38707187  0.71733937  0.94089334    -0.24400
N135        N  0.41495558  0.64517461  0.88338105    -0.24000
N136        N  0.31885838  0.72129349  0.87880575     0.03000
C137        C  0.45101390  0.74881218  0.88000407     0.44400
C138        C  0.35572165  0.66772333  0.80620651    -0.05300
N139        N  0.37500547  0.64278559  0.92601188    -0.24000
H140        H  0.43189443  0.61269496  0.86204224     0.08600
N141        N  0.42639385  0.75717176  0.87711698    -0.45200
H142        H  0.34525922  0.68123744  0.79393422     0.08500
C143        C  0.28769093  0.63942141  0.88418921     0.44200
C144        C  0.38219675  0.75786654  0.83370702    -0.04800
Co145      Co  0.33779016  0.69504198  0.85500242     0.73800
N146        N  0.37958802  0.63397160  0.82153575    -0.45000
C147        C  0.36775972  0.74156099  0.97047186     0.44500
N148        N  0.29354136  0.72255831  0.88285767    -0.44900
Co149      Co  0.37243015  0.64388080  0.88357785     0.73900
C150        C  0.36626204  0.62691409  0.94539729    -0.05300
C151        C  0.45061920  0.72496676  0.89509403    -0.04800
N152        N  0.33174844  0.73856874  0.89226231    -0.24400
N153        N  0.45210587  0.66240843  0.89679488    -0.45100
H154        H  0.39471667  0.70739122  0.98100462     0.08500
C155        C  0.29300804  0.66354726  0.87180104    -0.05300
Cl156      Cl  0.37234181  0.69175400  0.88685882    -0.48300
C157        C  0.37096665  0.64542179  0.79893269     0.44300
H158        H  0.31955026  0.76832740  0.91931898     0.08500
N159        N  0.31116654  0.62847784  0.89132759    -0.45000
C160        C  0.37154211  0.00864238  0.80955295     0.44100
N161        N  0.38953421  0.03304250  0.83715223     0.03000
C162        C  0.36743041  0.03813254  0.96858337    -0.04900
H163        H  0.28263104  0.04300579  0.90769613     0.08500
C164        C  0.31217891  0.12485333  0.87386244    -0.05200
Co165      Co  0.37745820  0.01808308  0.89140483     0.74200
N166        N  0.32391115  0.03623634  0.90286884    -0.24400
Co167      Co  0.34232816  0.06663086  0.92106022     0.74100
C168        C  0.28786994  0.11265751  0.88394977     0.44200
N169        N  0.37626637  0.10931148  0.84103951     0.02600
N170        N  0.32150761  0.09298682  0.89934761     0.02700
N171        N  0.39032529  0.00684456  0.94769663    -0.45200
H172        H  0.35403230  0.98240292  0.84121671     0.08500
N173        N  0.33741288  0.01760425  0.89152530     0.03000
N174        N  0.36063927  0.09671651  0.93871721     0.02800
C175        C  0.37314313  0.12040534  0.97044188     0.44400
N176        N  0.38962913  0.08929067  0.83177724    -0.23800
C177        C  0.43499878  0.00631222  0.90517920    -0.04800
N178        N  0.38690784  0.02937015  0.81191707    -0.44900
N179        N  0.35992647  0.09923756  0.96421036    -0.45200
C180        C  0.45973901  0.01759309  0.89793243     0.44100
N181        N  0.37750355  0.02184408  0.93123123     0.03000
N182        N  0.42860292  0.09280223  0.87054045    -0.23900
N183        N  0.37736567  0.01560905  0.85130655    -0.24400
N184        N  0.41773844  0.11281851  0.88255824     0.02700
H185        H  0.46753195  0.08183152  0.85996173     0.08500
H186        H  0.39390815  0.14863811  0.94179986     0.08600
N187        N  0.36398312  0.04028984  0.94281596    -0.24400
N188        N  0.33232310  0.11122744  0.88469352    -0.24000
N189        N  0.42966816  0.03703082  0.87706600     0.03000
C190        C  0.29802363  0.00771534  0.88496502     0.44400
C191        C  0.39044594  0.08994058  0.80588647    -0.05300
N192        N  0.37362317  0.11512353  0.92627477    -0.24000
H193        H  0.31410991  0.14129385  0.86092680     0.08600
N194        N  0.32260748  0.99981942  0.88075808    -0.45200
H195        H  0.40100588  0.07651292  0.79361593     0.08500
C196        C  0.45964880  0.11886465  0.88237217     0.44200
C197        C  0.36557601  0.99890653  0.83540471    -0.04800
Co198      Co  0.40934541  0.06295534  0.85406470     0.73800
N199        N  0.36751563  0.12421874  0.82135957    -0.45000
C200        C  0.38551955  0.01644335  0.97147112     0.44500
N201        N  0.45517811  0.03592878  0.87985361    -0.44900
Co202      Co  0.37492990  0.11370327  0.88361639     0.73900
C203        C  0.38261646  0.13133624  0.94516046    -0.05300
C204        C  0.29855034  0.03141586  0.90008903    -0.04800
N205        N  0.41746504  0.01986097  0.89146637    -0.24400
N206        N  0.29582117  0.09337416  0.89948304    -0.45100
H207        H  0.35839421  0.05010016  0.98333490     0.08500
C208        C  0.45424878  0.09515452  0.86937624    -0.05300
Cl209      Cl  0.37589686  0.06590583  0.88749629    -0.48300
C210        C  0.37591705  0.11266828  0.79868987     0.44300
H211        H  0.43094898  0.99060937  0.91856014     0.08500
N212        N  0.43622531  0.12939267  0.89033966    -0.45000
C213        C  0.29799823  0.87228545  0.01611019     0.44100
N214        N  0.32541211  0.89092079  0.04046367     0.03000
C215        C  0.45649264  0.86714752  0.04779810    -0.04900
H216        H  0.39430817  0.78423690  0.05829193     0.08500
C217        C  0.36224920  0.81784156  0.13683399    -0.05200
Co218      Co  0.37965143  0.87717227  0.02652680     0.74200
N219        N  0.39036054  0.82485830  0.04818414    -0.24400
Co220      Co  0.40893026  0.84466673  0.07713945     0.74100
C221        C  0.37254580  0.79292076  0.12562634     0.44200
N222        N  0.32962981  0.88169391  0.11747957     0.02600
N223        N  0.38742493  0.82564387  0.10447319     0.02700
N224        N  0.43622283  0.88835423  0.01492918    -0.45200
H225        H  0.32995566  0.85294637  0.99142757     0.08500
N226        N  0.37914533  0.83708094  0.02866491     0.03000
N227        N  0.42693791  0.86423519  0.10606070     0.02800
C228        C  0.45903470  0.87717731  0.12894995     0.44400
N229        N  0.32050601  0.89408660  0.09680525    -0.23800
C230        C  0.39415520  0.93412573  0.01198783    -0.04800
N231        N  0.30018730  0.88872058  0.03622154    -0.44900
N232        N  0.45240084  0.86302375  0.10850649    -0.45200
C233        C  0.38721644  0.95953276  0.02235585     0.44100
N234        N  0.41945351  0.87667665  0.03038964     0.03000
N235        N  0.35950770  0.93283963  0.09861612    -0.23900
N236        N  0.33965111  0.87758969  0.02385319    -0.24400
N237        N  0.37127144  0.92275972  0.11918689     0.02700
H238        H  0.34948623  0.97149328  0.08608557     0.08500
H239        H  0.43087881  0.90004138  0.15632123     0.08600
N240        N  0.43071832  0.86422092  0.04972832    -0.24400
N241        N  0.37283240  0.83737662  0.12223743    -0.24000
N242        N  0.36588340  0.93066161  0.04276274     0.03000
C243        C  0.37139520  0.79713736  0.02243906     0.44400
C244        C  0.29466731  0.89499542  0.09715047    -0.05300
N245        N  0.41477357  0.87839098  0.12387470    -0.24000
H246        H  0.34944150  0.82053403  0.15327632     0.08600
N247        N  0.36777281  0.82103696  0.01234718    -0.45200
H248        H  0.28249759  0.90481158  0.08310430     0.08500
C249        C  0.37153660  0.96490876  0.12362113     0.44200
C250        C  0.32394207  0.86527834  0.00739128    -0.04800
Co251      Co  0.34270011  0.91216515  0.06958152     0.73800
N252        N  0.30987542  0.87371238  0.13256091    -0.45000
C253        C  0.45976228  0.88372723  0.02522399     0.44500
N254        N  0.36908366  0.95603337  0.04078315    -0.44900
Co255      Co  0.37205616  0.88011640  0.12226413     0.73900
C256        C  0.43393506  0.88781444  0.13954320    -0.05300
C257        C  0.38691465  0.79930075  0.04560221    -0.04800
N258        N  0.38016489  0.91739493  0.02614636    -0.24400
N259        N  0.38781127  0.80004506  0.10599956    -0.45100
H260        H  0.47100082  0.85876399  0.06052674     0.08500
C261        C  0.35870653  0.95864950  0.09993699    -0.05300
Cl262      Cl  0.37577502  0.87853983  0.07440361    -0.48300
C263        C  0.28738482  0.88165100  0.12039923     0.44300
H264        H  0.40767873  0.92913879  0.99662351     0.08500
N265        N  0.37902492  0.94183879  0.13512343    -0.45000
C266        C  0.50293444  0.80522634  0.88056882     0.44100
N267        N  0.52858134  0.83137858  0.89905317     0.03000
C268        C  0.53713736  0.96268616  0.87914200    -0.04900
H269        H  0.54058946  0.90076198  0.79360422     0.08500
C270        C  0.62172032  0.86714363  0.82321483    -0.05200
Co271      Co  0.51463467  0.88629429  0.88833892     0.74200
N272        N  0.53302379  0.89737343  0.83484343    -0.24400
Co273      Co  0.56382240  0.91478646  0.85327782     0.74100
C274        C  0.60962708  0.87737140  0.79882140     0.44200
N275        N  0.60535116  0.83435164  0.88652085     0.02600
N276        N  0.58975190  0.89269553  0.83233138     0.02700
N277        N  0.50563099  0.94290786  0.90233017    -0.45200
H278        H  0.47727299  0.83824859  0.86453201     0.08500
N279        N  0.51400126  0.88681349  0.84824658     0.03000
N280        N  0.59413887  0.93184375  0.87153121     0.02800
C281        C  0.61765050  0.96338870  0.88457561     0.44400
N282        N  0.58509485  0.82501655  0.89927193    -0.23800
C283        C  0.50253291  0.89826077  0.94623475    -0.04800
N284        N  0.52401638  0.80636523  0.89582473    -0.44900
N285        N  0.59679063  0.95728047  0.87083351    -0.45200
C286        C  0.51312117  0.88953578  0.97093634     0.44100
N287        N  0.51966641  0.92596425  0.88900625     0.03000
N288        N  0.58906116  0.86288842  0.93906673    -0.23900
N289        N  0.51129116  0.84641691  0.88752370    -0.24400
N290        N  0.60907431  0.87496393  0.92848466     0.02700
H291        H  0.57804764  0.85198196  0.97784370     0.08500
H292        H  0.64531665  0.93445915  0.90612327     0.08600
N293        N  0.53820638  0.93695143  0.87529641    -0.24400
N294        N  0.60796485  0.87795417  0.84324687    -0.24000
N295        N  0.53329287  0.87019170  0.94027151     0.03000
C296        C  0.50469166  0.87938006  0.80879941     0.44400
C297        C  0.58567518  0.79912439  0.89950865    -0.05300
N298        N  0.61219215  0.91921365  0.88494750    -0.24000
H299        H  0.63815304  0.85414954  0.82527865     0.08600
N300        N  0.49633647  0.87593647  0.83331638    -0.45200
H301        H  0.57213024  0.78672943  0.90962528     0.08500
C302        C  0.61519724  0.87408703  0.97034158     0.44200
C303        C  0.49391709  0.83150804  0.87555805    -0.04800
Co304      Co  0.55897423  0.84720670  0.91942069     0.73800
N305        N  0.62042817  0.81482783  0.87775103    -0.45000
C306        C  0.51606864  0.96631864  0.89761854     0.44500
N307        N  0.53154429  0.87158623  0.96587158    -0.44900
Co308      Co  0.61013684  0.87661631  0.88582178     0.73900
C309        C  0.62829582  0.93797079  0.89437319    -0.05300
C310        C  0.52855122  0.89404205  0.80945900    -0.04800
N311        N  0.51642770  0.88537337  0.92837162    -0.24400
N312        N  0.59026381  0.89294117  0.80663466    -0.45100
H313        H  0.54944990  0.97703994  0.87011915     0.08500
C314        C  0.59144936  0.86134516  0.96470586    -0.05300
Cl315      Cl  0.56219225  0.88117593  0.88669657    -0.48300
C316        C  0.60871540  0.79214492  0.88539276     0.44300
H317        H  0.48666433  0.91168493  0.94240167     0.08500
N318        N  0.62564499  0.88242780  0.94712525    -0.45000
C319        C  0.87613809  0.29495822  0.74911193     0.44100
N320        N  0.86821710  0.33506943  0.74280606     0.03000
C321        C  0.81279498  0.38752121  0.63198668    -0.04900
H322        H  0.89681676  0.32042773  0.61769745     0.08500
C323        C  0.95222890  0.39228010  0.67302687    -0.05200
Co324      Co  0.83804896  0.34399072  0.69468060     0.74200
N325        N  0.87366102  0.33688883  0.64917489    -0.24400
Co326      Co  0.87447595  0.37942092  0.64932338     0.74100
C327        C  0.95894634  0.37982712  0.64907179     0.44200
N328        N  0.92197329  0.38728269  0.73036367     0.02600
N329        N  0.91682666  0.38019992  0.65325000     0.02700
N330        N  0.79442359  0.36306457  0.66326253    -0.45200
H331        H  0.85269499  0.28264428  0.71347515     0.08500
N332        N  0.85933700  0.32505543  0.66702177     0.03000
N333        N  0.87539892  0.42190731  0.65288663     0.02800
C334        C  0.87510244  0.46409263  0.64874071     0.44400
N335        N  0.90789654  0.37425640  0.74721025    -0.23800
C336        C  0.79116720  0.36844128  0.72384134    -0.04800
N337        N  0.87982445  0.31878357  0.75897956    -0.44900
N338        N  0.86756647  0.44131424  0.63714721    -0.45200
C339        C  0.78827092  0.38531970  0.74614100     0.44100
N340        N  0.81984227  0.36425810  0.66594665     0.03000
N341        N  0.86825281  0.41500330  0.74634613    -0.23900
N342        N  0.85674223  0.32320837  0.72344075    -0.24400
N343        N  0.88226836  0.42829412  0.72965029     0.02700
H344        H  0.84352046  0.42646105  0.77838481     0.08500
H345        H  0.89746196  0.46978501  0.68626638     0.08600
N346        N  0.83190382  0.37824882  0.64801529    -0.24400
N347        N  0.92638728  0.39173148  0.67403783    -0.24000
N348        N  0.82829109  0.37588596  0.74159428     0.03000
C349        C  0.87420415  0.29271163  0.64532925     0.44400
C350        C  0.92370081  0.36207531  0.76388256    -0.05300
N351        N  0.88738443  0.43144858  0.67344563    -0.24000
H352        H  0.96473751  0.40154788  0.68699067     0.08600
N353        N  0.85912477  0.29950258  0.66526742    -0.45200
H354        H  0.91775186  0.35050259  0.78043586     0.08500
C355        C  0.86374435  0.45710369  0.75296940     0.44200
C356        C  0.86021898  0.29753281  0.72609497    -0.04800
Co357      Co  0.86805072  0.37499288  0.74516510     0.73800
N358        N  0.94714662  0.38510542  0.73479156    -0.45000
C359        C  0.78781015  0.37705433  0.64252753     0.44500
N360        N  0.81183216  0.38854481  0.75675722    -0.44900
Co361      Co  0.90462095  0.40972647  0.70193239     0.73900
C362        C  0.88811378  0.45728643  0.67235370    -0.05300
C363        C  0.88420075  0.31758338  0.63424866    -0.04800
N364        N  0.81677095  0.36401534  0.72224738    -0.24400
N365        N  0.93616604  0.37266566  0.63731862    -0.45100
H366        H  0.81586256  0.39932383  0.61488111     0.08500
C367        C  0.85595550  0.43161706  0.76218531    -0.05300
Cl368      Cl  0.87131788  0.37708249  0.69724062    -0.48300
C369        C  0.94960809  0.36884532  0.75514026     0.44300
H370        H  0.77648509  0.36098537  0.71095842     0.08500
N371        N  0.88063478  0.45365696  0.73331089    -0.45000
C372        C  0.87779712  0.24244629  0.80442427     0.44100
N373        N  0.85898880  0.21959981  0.83313294     0.03000
C374        C  0.88375387  0.22038791  0.96405677    -0.04900
H375        H  0.96637289  0.21279105  0.90297310     0.08500
C376        C  0.93465431  0.12725670  0.87474054    -0.05200
Co377      Co  0.87165501  0.23672661  0.88640457     0.74200
N378        N  0.92506115  0.21842902  0.89745432    -0.24400
Co379      Co  0.90633676  0.18913369  0.91766103     0.74100
C380        C  0.95915218  0.13939958  0.88394211     0.44200
N381        N  0.87138725  0.14366499  0.84089220     0.02600
N382        N  0.92625610  0.16146143  0.89719203     0.02700
N383        N  0.86107722  0.25151488  0.94259210    -0.45200
H384        H  0.89547750  0.26958036  0.83479240     0.08500
N385        N  0.91147073  0.23657359  0.88548932     0.03000
N386        N  0.88760697  0.16016595  0.93732716     0.02800
C387        C  0.87590776  0.13739100  0.97024529     0.44400
N388        N  0.85792826  0.16321083  0.83075318    -0.23800
C389        C  0.81480133  0.25015706  0.90059672    -0.04800
N390        N  0.86175257  0.22228122  0.80772856    -0.44900
N391        N  0.88895377  0.15841166  0.96288635    -0.45200
C392        C  0.78971360  0.23930224  0.89425596     0.44100
N393        N  0.87231735  0.23501184  0.92639457     0.03000
N394        N  0.81910937  0.16211364  0.86990140    -0.23900
N395        N  0.87145201  0.23733173  0.84639394    -0.24400
N396        N  0.82975117  0.14231435  0.88251918     0.02700
H397        H  0.78043238  0.17290334  0.85846798     0.08500
H398        H  0.85472765  0.10814969  0.94333012     0.08600
N399        N  0.88576091  0.21677607  0.93838875    -0.24400
N400        N  0.91497994  0.14246547  0.88414459    -0.24000
N401        N  0.81906053  0.21814181  0.87392673     0.03000
C402        C  0.95075348  0.24705172  0.87853332     0.44400
C403        C  0.85751383  0.16166730  0.80492757    -0.05300
N404        N  0.87428935  0.14136508  0.92602777    -0.24000
H405        H  0.93225668  0.10972847  0.86352022     0.08600
N406        N  0.92605513  0.25432470  0.87428693    -0.45200
H407        H  0.84732859  0.17475892  0.79199669     0.08500
C408        C  0.78785014  0.13627798  0.88191962     0.44200
C409        C  0.88370792  0.25303970  0.82976623    -0.04800
Co410      Co  0.83870114  0.19086089  0.85182535     0.73800
N411        N  0.88095575  0.12841361  0.82192628    -0.45000
C412        C  0.86685282  0.24293298  0.96661529     0.44500
N413        N  0.79361199  0.22006009  0.87703009    -0.44900
Co414      Co  0.87256714  0.14090093  0.88345969     0.73900
C415        C  0.86582340  0.12571383  0.94573006    -0.05300
C416        C  0.95036934  0.22363041  0.89447986    -0.04800
N417        N  0.83179242  0.23560219  0.88729413    -0.24400
N418        N  0.95187459  0.16022188  0.89756265    -0.45100
H419        H  0.89343759  0.20905508  0.97896490     0.08500
C420        C  0.79347626  0.15983393  0.86855707    -0.05300
Cl421      Cl  0.87233648  0.18881237  0.88490512    -0.48300
C422        C  0.87264239  0.13904595  0.79880170     0.44300
H423        H  0.81942832  0.26638248  0.91300700     0.08500
N424        N  0.81111451  0.12585985  0.89037877    -0.45000
C425        C  0.74377894  0.45536666  0.87427498     0.44100
N426        N  0.71980154  0.42767399  0.89334343     0.03000
C427        C  0.71354058  0.29653674  0.87337380    -0.04900
H428        H  0.70022133  0.35949598  0.78878382     0.08500
C429        C  0.62272591  0.38953500  0.82460531    -0.05200
Co430      Co  0.73443739  0.37359673  0.88046001     0.74200
N431        N  0.71169845  0.36239780  0.82907789    -0.24400
Co432      Co  0.68362407  0.34361876  0.85034495     0.74100
C433        C  0.63347574  0.37890257  0.79972620     0.44200
N434        N  0.64279896  0.42279206  0.88701344     0.02600
N435        N  0.65555518  0.36463352  0.83197672     0.02700
N436        N  0.74663266  0.31707761  0.89330515    -0.45200
H437        H  0.76894564  0.42352945  0.85521186     0.08500
N438        N  0.73124322  0.37386348  0.84059985     0.03000
N439        N  0.65557256  0.32564294  0.87124380     0.02800
C440        C  0.63314084  0.29347738  0.88480837     0.44400
N441        N  0.66363118  0.43220897  0.89854105    -0.23800
C442        C  0.75205257  0.36111243  0.93667868    -0.04800
N443        N  0.72385992  0.45287925  0.89099399    -0.44900
N444        N  0.65338397  0.30019748  0.87034974    -0.45200
C445        C  0.74314620  0.36881593  0.96233030     0.44100
N446        N  0.73113445  0.33367809  0.88117296     0.03000
N447        N  0.66350883  0.39324138  0.93809072    -0.23900
N448        N  0.73645763  0.41357497  0.87990862    -0.24400
N449        N  0.64284383  0.38143671  0.92864868     0.02700
H450        H  0.67674350  0.40288163  0.97645583     0.08500
H451        H  0.60537897  0.32150601  0.90739696     0.08600
N452        N  0.71166710  0.32222340  0.86950008    -0.24400
N453        N  0.63789576  0.37925268  0.84387288    -0.24000
N454        N  0.71969787  0.38788121  0.93406427     0.03000
C455        C  0.73572325  0.38309034  0.80060366     0.44400
C456        C  0.66289575  0.45805821  0.89889816    -0.05300
N457        N  0.63770458  0.33772784  0.88543518    -0.24000
H458        H  0.60620640  0.40226347  0.82748712     0.08600
N459        N  0.74647314  0.38626446  0.82412571    -0.45200
H460        H  0.67704092  0.47049489  0.90795486     0.08500
C461        C  0.63916142  0.38076940  0.97079774     0.44200
C462        C  0.75271384  0.42943920  0.86735438    -0.04800
Co463      Co  0.69171078  0.41037666  0.91610226     0.73800
N464        N  0.62717204  0.44230047  0.87914993    -0.45000
C465        C  0.73616496  0.29351058  0.88974806     0.44500
N466        N  0.72360117  0.38600522  0.95936365    -0.44900
Co467      Co  0.63873954  0.38039270  0.88634732     0.73900
C468        C  0.62224110  0.31850921  0.89521716    -0.05300
C469        C  0.71329976  0.36660446  0.80344903    -0.04800
N470        N  0.73615511  0.37375547  0.92041357    -0.24400
N471        N  0.65341371  0.36385705  0.80650339    -0.45100
H472        H  0.70062380  0.28192180  0.86591306     0.08500
C473        C  0.66270266  0.39374119  0.96395715    -0.05300
Cl474      Cl  0.68657927  0.37704802  0.88338759    -0.48300
C475        C  0.63917352  0.46497543  0.88619418     0.44300
H476        H  0.76803331  0.34842253  0.93119786     0.08500
N477        N  0.62732557  0.37350570  0.94807805    -0.45000
C478        C  0.99795383  0.30747357  0.88353483     0.44100
N479        N  0.02409013  0.33365742  0.90109316     0.03000
C480        C  0.03503529  0.46457552  0.88022736    -0.04900
H481        H  0.03693209  0.40229879  0.79518410     0.08500
C482        C  0.11803217  0.36807702  0.82428975    -0.05200
Co483      Co  0.01108259  0.38870247  0.88999786     0.74200
N484        N  0.02933474  0.39934561  0.83643129    -0.24400
Co485      Co  0.06056769  0.41606409  0.85452018     0.74100
C486        C  0.10619748  0.37874827  0.80001165     0.44200
N487        N  0.10069446  0.33461039  0.88751548     0.02600
N488        N  0.08595981  0.39348912  0.83349052     0.02700
N489        N  0.00319393  0.44559430  0.90360662    -0.45200
H490        H  0.97248389  0.34053115  0.86698444     0.08500
N491        N  0.01018178  0.38919063  0.84998093     0.03000
N492        N  0.09128999  0.43247116  0.87243151     0.02800
C493        C  0.11576068  0.46357163  0.88453109     0.44400
N494        N  0.08034007  0.32578476  0.90047934    -0.23800
C495        C  0.00061673  0.40178841  0.94790531    -0.04800
N496        N  0.01929213  0.30867826  0.89829177    -0.44900
N497        N  0.09450527  0.45780170  0.87131231    -0.45200
C498        C  0.01180122  0.39336570  0.97244427     0.44100
N499        N  0.01685599  0.42828238  0.89037554     0.03000
N500        N  0.08566705  0.36376771  0.94015185    -0.23900
N501        N  0.00685454  0.34876445  0.88954710    -0.24400
N502        N  0.10572541  0.37554395  0.92936575     0.02700
H503        H  0.07483529  0.35316025  0.97906842     0.08500
H504        H  0.14329149  0.43431496  0.90580552     0.08600
N505        N  0.03556543  0.43881331  0.87655141    -0.24400
N506        N  0.10405617  0.37852958  0.84431253    -0.24000
N507        N  0.03029680  0.37265857  0.94167699     0.03000
C508        C  0.00064147  0.38184665  0.81069836     0.44400
C509        C  0.08018943  0.29984671  0.90060244    -0.05300
N510        N  0.10931183  0.41956711  0.88563855    -0.24000
H511        H  0.13461069  0.35525734  0.82631970     0.08600
N512        N  0.99231495  0.37849533  0.83521328    -0.45200
H513        H  0.06641103  0.28781155  0.91083214     0.08500
C514        C  0.11215378  0.37486338  0.97118644     0.44200
C515        C  0.98910734  0.33380772  0.87806124    -0.04800
Co516      Co  0.05504366  0.34883109  0.92082853     0.73800
N517        N  0.11508668  0.31464138  0.87850720    -0.45000
C518        C  0.01413648  0.46874667  0.89876235     0.44500
N519        N  0.02945117  0.37473234  0.96724401    -0.44900
Co520      Co  0.10641992  0.37699576  0.88673541     0.73900
C521        C  0.12603457  0.43806529  0.89447183    -0.05300
C522        C  0.02475044  0.39602376  0.81109339    -0.04800
N523        N  0.01352084  0.38806115  0.92994035    -0.24400
N524        N  0.08676705  0.39422212  0.80782136    -0.45100
H525        H  0.04756440  0.47861880  0.87103100     0.08500
C526        C  0.08826600  0.36226205  0.96578035    -0.05300
Cl527      Cl  0.05856734  0.38257336  0.88795108    -0.48300
C528        C  0.10283818  0.29217454  0.88611341     0.44300
H529        H  0.98518574  0.41573092  0.94426497     0.08500
N530        N  0.12250069  0.38296102  0.94783820    -0.45000
C531        C  0.79778226  0.37220219  0.01595817     0.44100
N532        N  0.82475757  0.39066592  0.04078441     0.03000
C533        C  0.95593135  0.36889039  0.04791207    -0.04900
H534        H  0.89424679  0.28437067  0.05543993     0.08500
C535        C  0.86278305  0.31736752  0.13620134    -0.05200
Co536      Co  0.87911026  0.37812981  0.02631730     0.74200
N537        N  0.89021746  0.32534441  0.04673268    -0.24400
Co538      Co  0.90864966  0.34483391  0.07626710     0.74100
C539        C  0.87280211  0.29254885  0.12460522     0.44200
N540        N  0.82965734  0.38097909  0.11792818     0.02600
N541        N  0.88725441  0.32538144  0.10334977     0.02700
N542        N  0.93552628  0.39107163  0.01576801    -0.45200
H543        H  0.82998053  0.35426904  0.99062894     0.08500
N544        N  0.87905787  0.33810982  0.02752820     0.03000
N545        N  0.92665776  0.36412491  0.10541754     0.02800
C546        C  0.95886424  0.37748762  0.12787261     0.44400
N547        N  0.82009429  0.39318390  0.09735053    -0.23800
C548        C  0.89163743  0.43516385  0.01149049    -0.04800
N549        N  0.79958919  0.38816624  0.03648113    -0.44900
N550        N  0.95214288  0.36313227  0.10761739    -0.45200
C551        C  0.88364407  0.46041121  0.02132822     0.44100
N552        N  0.91889125  0.37818797  0.03037770     0.03000
N553        N  0.85850330  0.43246483  0.09905686    -0.23900
N554        N  0.83920796  0.37803992  0.02379387    -0.24400
N555        N  0.87060303  0.42239032  0.11942992     0.02700
H556        H  0.84763599  0.47100768  0.08693107     0.08500
H557        H  0.93083817  0.40030018  0.15540165     0.08600
N558        N  0.93023929  0.36520084  0.04932322    -0.24400
N559        N  0.87303998  0.33697902  0.12151665    -0.24000
N560        N  0.86427156  0.43111885  0.04303969     0.03000
C561        C  0.87152192  0.29839394  0.01969776     0.44400
C562        C  0.79426896  0.39409575  0.09830939    -0.05300
N563        N  0.91459715  0.37831698  0.12325675    -0.24000
H564        H  0.85034009  0.31995610  0.15293506     0.08600
N565        N  0.86783526  0.32262675  0.01059381    -0.45200
H566        H  0.78178222  0.40398326  0.08457917     0.08500
C567        C  0.86998160  0.46448339  0.12431076     0.44200
C568        C  0.82376767  0.36594988  0.00698108    -0.04800
Co569      Co  0.84176808  0.41186568  0.07004429     0.73800
N570        N  0.81031667  0.37328998  0.13365341    -0.45000
C571        C  0.95900928  0.38665056  0.02627852     0.44500
N572        N  0.86611611  0.45658668  0.04031624    -0.44900
Co573      Co  0.87197379  0.37971936  0.12204656     0.73900
C574        C  0.93382139  0.38798396  0.13868017    -0.05300
C575        C  0.88690013  0.29983122  0.04316868    -0.04800
N576        N  0.87879044  0.41819675  0.02635568    -0.24400
N577        N  0.88765872  0.29975992  0.10466325    -0.45100
H578        H  0.97048403  0.36053776  0.06055090     0.08500
C579        C  0.85719392  0.45822830  0.10061686    -0.05300
Cl580      Cl  0.87532800  0.37864271  0.07397369    -0.48300
C581        C  0.78757603  0.38111709  0.12197277     0.44300
H582        H  0.90468255  0.43040337  0.99561938     0.08500
N583        N  0.87803871  0.44145729  0.13552956    -0.45000
C584        C  0.86886651  0.51073257  0.80746680     0.44100
N585        N  0.88780916  0.53519395  0.83452108     0.03000
C586        C  0.86505698  0.53880853  0.96602583    -0.04900
H587        H  0.78140400  0.54561329  0.90427065     0.08500
C588        C  0.81253275  0.62825750  0.87316171    -0.05200
Co589      Co  0.87611040  0.51975762  0.88882708     0.74200
N590        N  0.82270351  0.53843575  0.90005312    -0.24400
Co591      Co  0.84146855  0.56837200  0.91873985     0.74100
C592        C  0.78802431  0.61624025  0.88290375     0.44200
N593        N  0.87596302  0.61183253  0.83990068     0.02600
N594        N  0.82120829  0.59529463  0.89743011     0.02700
N595        N  0.88796925  0.50742496  0.94528114    -0.45200
H596        H  0.85207282  0.48477239  0.83952900     0.08500
N597        N  0.83614371  0.51966960  0.88886400     0.03000
N598        N  0.86025794  0.59772304  0.93702220     0.02800
C599        C  0.87374961  0.61999418  0.96935448     0.44400
N600        N  0.88890975  0.59179416  0.83010554    -0.23800
C601        C  0.93332150  0.50787385  0.90285765    -0.04800
N602        N  0.88460142  0.53136481  0.80931397    -0.44900
N603        N  0.85976652  0.59951474  0.96257827    -0.45200
C604        C  0.95805323  0.51939119  0.89613884     0.44100
N605        N  0.87602785  0.52303889  0.92870186     0.03000
N606        N  0.92833337  0.59436062  0.86844558    -0.23900
N607        N  0.87579250  0.51782859  0.84890048    -0.24400
N608        N  0.91764451  0.61409422  0.88107893     0.02700
H609        H  0.96724848  0.58365111  0.85736496     0.08500
H610        H  0.89541479  0.64825593  0.94140670     0.08600
N611        N  0.86247320  0.54147601  0.94025044    -0.24400
N612        N  0.83237270  0.61379424  0.88342951    -0.24000
N613        N  0.92841419  0.53839992  0.87441042     0.03000
C614        C  0.79679825  0.51025304  0.88156674     0.44400
C615        C  0.88950215  0.59295442  0.80426263    -0.05300
N616        N  0.87382166  0.61598814  0.92503950    -0.24000
H617        H  0.81479727  0.64514930  0.86088092     0.08600
N618        N  0.82133457  0.50210929  0.87778841    -0.45200
H619        H  0.89967356  0.57958481  0.79161351     0.08500
C620        C  0.95956137  0.62024896  0.88071986     0.44200
C621        C  0.86350052  0.50123403  0.83339699    -0.04800
Co622      Co  0.90841991  0.56483840  0.85167785     0.73800
N623        N  0.86719793  0.62726601  0.82067931    -0.45000
C624        C  0.88252473  0.51673009  0.96907143     0.44500
N625        N  0.95384590  0.53757691  0.87783884    -0.44900
Co626      Co  0.87492536  0.61542181  0.88240501     0.73900
C627        C  0.88347240  0.63132164  0.94433220    -0.05300
C628        C  0.79732660  0.53388914  0.89684956    -0.04800
N629        N  0.91603292  0.52126655  0.88873953    -0.24400
N630        N  0.79554859  0.59620888  0.89765305    -0.45100
H631        H  0.85559119  0.55056413  0.98072465     0.08500
C632        C  0.95402042  0.59680544  0.86710513    -0.05300
Cl633      Cl  0.87520193  0.56740699  0.88537265    -0.48300
C634        C  0.87528547  0.61606415  0.79777860     0.44300
H635        H  0.92906362  0.49243600  0.91646241     0.08500
N636        N  0.93618722  0.63042225  0.88919167    -0.45000
C637        C  0.78766625  0.87650889  0.14448573     0.44100
N638        N  0.82970102  0.87525110  0.14967309     0.03000
C639        C  0.88747794  0.82269204  0.25904086    -0.04900
H640        H  0.82188515  0.90333146  0.27536479     0.08500
C641        C  0.88331874  0.95673535  0.22678802    -0.05200
Co642      Co  0.83997683  0.84420210  0.19800849     0.74200
N643        N  0.83395779  0.87898598  0.24335202    -0.24400
Co644      Co  0.87395792  0.87888487  0.24327999     0.74100
C645        C  0.86694706  0.95875957  0.24978116     0.44200
N646        N  0.88670444  0.93007058  0.16623318     0.02600
N647        N  0.87355213  0.91875387  0.24152757     0.02700
N648        N  0.86450823  0.80029017  0.22935921    -0.45200
H649        H  0.78041688  0.85283588  0.18107376     0.08500
N650        N  0.82097564  0.86578269  0.22591687     0.03000
N651        N  0.91392344  0.87869830  0.24211420     0.02800
C652        C  0.95391606  0.87214212  0.25057435     0.44400
N653        N  0.87341681  0.91851089  0.14757652    -0.23800
C654        C  0.85835173  0.79746627  0.16845363    -0.04800
N655        N  0.81092832  0.88413983  0.13377181    -0.44900
N656        N  0.92967286  0.86771781  0.25919905    -0.45200
C657        C  0.87289649  0.79142986  0.14549011     0.44100
N658        N  0.86161039  0.82564638  0.22627986     0.03000
N659        N  0.91484371  0.87668052  0.14829653    -0.23900
N660        N  0.81931038  0.86265336  0.16955721    -0.24400
N661        N  0.92618087  0.89037407  0.16679415     0.02700
H662        H  0.93211299  0.85454715  0.11653275     0.08500
H663        H  0.96722639  0.89651808  0.21564159     0.08600
N664        N  0.87457005  0.83906662  0.24354793    -0.24400
N665        N  0.88607897  0.93111412  0.22299583    -0.24000
N666        N  0.87148918  0.83346816  0.15020197     0.03000
C667        C  0.79181798  0.88456216  0.24854429     0.44400
C668        C  0.86419450  0.93802743  0.13200481    -0.05300
N669        N  0.92640785  0.89076177  0.22338835    -0.24000
H670        H  0.89213294  0.97193025  0.21528445     0.08600
N671        N  0.79554540  0.86806592  0.22869912    -0.45200
H672        H  0.85279084  0.93539783  0.11462587     0.08500
C673        C  0.95914396  0.87611242  0.14538482     0.44200
C674        C  0.79351141  0.86241615  0.16777763    -0.04800
Co675      Co  0.87234459  0.87597038  0.14742147     0.73800
N676        N  0.88736968  0.95564583  0.16448072    -0.45000
C677        C  0.88126388  0.79719951  0.24913793     0.44500
N678        N  0.88075804  0.81455904  0.13471671    -0.44900
Co679      Co  0.90644520  0.91070698  0.19478287     0.73900
C680        C  0.95196896  0.88794721  0.22725197    -0.05300
C681        C  0.81707027  0.89132015  0.25886772    -0.04800
N682        N  0.85859073  0.82328617  0.16997471    -0.24400
N683        N  0.86219881  0.93455864  0.25828986    -0.45100
H684        H  0.89942478  0.82796898  0.27541403     0.08500
C685        C  0.93453880  0.86659329  0.13350288    -0.05300
Cl686      Cl  0.87314230  0.87747869  0.19534956    -0.48300
C687        C  0.87378785  0.96275468  0.14360976     0.44300
H688        H  0.84864450  0.78450267  0.18179313     0.08500
N689        N  0.95179561  0.89052431  0.16561829    -0.45000
C690        C  0.87407209  0.74826209  0.30699546     0.44100
N691        N  0.85741523  0.72337190  0.33506396     0.03000
C692        C  0.88473518  0.71938373  0.46536452    -0.04900
H693        H  0.96620165  0.71414977  0.40032529     0.08500
C694        C  0.93450747  0.62951356  0.37306029    -0.05200
Co695      Co  0.87073543  0.73877151  0.38867476     0.74200
N696        N  0.92469383  0.72041996  0.39751631    -0.24400
Co697      Co  0.90675989  0.69034607  0.41743156     0.74100
C698        C  0.95915936  0.64186289  0.38175185     0.44200
N699        N  0.87095527  0.64689814  0.34044399     0.02600
N700        N  0.92631505  0.66347825  0.39585946     0.02700
N701        N  0.86058536  0.75051845  0.44567981    -0.45200
H702        H  0.89176075  0.77486547  0.33790372     0.08500
N703        N  0.91063640  0.73902794  0.38680171     0.03000
N704        N  0.88853661  0.66094344  0.43673478     0.02800
C705        C  0.87515917  0.63928623  0.46971119     0.44400
N706        N  0.85775873  0.66685487  0.33075739    -0.23800
C707        C  0.81364413  0.75057103  0.40410836    -0.04800
N708        N  0.85930705  0.72714310  0.30975121    -0.44900
N709        N  0.88951042  0.65936201  0.46229550    -0.45200
C710        C  0.78873985  0.73937858  0.39742299     0.44100
N711        N  0.87220368  0.73526599  0.42855980     0.03000
N712        N  0.81868822  0.66430783  0.37018487    -0.23900
N713        N  0.86949023  0.74109267  0.34874685    -0.24400
N714        N  0.82933495  0.64451079  0.38272499     0.02700
H715        H  0.77985149  0.67585333  0.35999041     0.08500
H716        H  0.85222949  0.61131484  0.44285498     0.08600
N717        N  0.88644314  0.71700005  0.43952355    -0.24400
N718        N  0.91486571  0.64451969  0.38295193    -0.24000
N719        N  0.81840359  0.71980989  0.37606272     0.03000
C720        C  0.94961930  0.74928547  0.37793862     0.44400
C721        C  0.85813237  0.66635062  0.30484135    -0.05300
N722        N  0.87429158  0.64286853  0.42544345    -0.24000
H723        H  0.93202067  0.61205485  0.36175689     0.08600
N724        N  0.92479128  0.75691847  0.37521355    -0.45200
H725        H  0.84829745  0.67992219  0.29213267     0.08500
C726        C  0.78717455  0.63936435  0.38357518     0.44200
C727        C  0.88045154  0.75812563  0.33250857    -0.04800
Co728      Co  0.83806538  0.69357560  0.35283507     0.73800
N729        N  0.88083339  0.63225935  0.32115357    -0.45000
C730        C  0.86702898  0.74108977  0.46922283     0.44500
N731        N  0.79298967  0.72105349  0.37938074    -0.44900
Co732      Co  0.87229688  0.64311546  0.38294686     0.73900
C733        C  0.86467144  0.62795388  0.44519210    -0.05300
C734        C  0.94986733  0.72546558  0.39326396    -0.04800
N735        N  0.83088433  0.73692355  0.39012916    -0.24400
N736        N  0.95193194  0.66246103  0.39568457    -0.45100
H737        H  0.89489963  0.70768114  0.47960445     0.08500
C738        C  0.79296739  0.66248515  0.36958041    -0.05300
Cl739      Cl  0.87201611  0.69115124  0.38544040    -0.48300
C740        C  0.87330598  0.64382623  0.29821007     0.44300
H741        H  0.81799185  0.76637608  0.41715827     0.08500
N742        N  0.81055337  0.62857526  0.39142257    -0.45000
C743        C  0.74440192  0.95222675  0.37768313     0.44100
N744        N  0.71886121  0.92486463  0.39496601     0.03000
C745        C  0.71158912  0.79400947  0.37456211    -0.04900
H746        H  0.70172023  0.85585979  0.28889689     0.08500
C747        C  0.62286833  0.88827936  0.32326881    -0.05200
Co748      Co  0.73291047  0.87080552  0.38161621     0.74200
N749        N  0.71145589  0.85969721  0.32958075    -0.24400
Co750      Co  0.68254482  0.84127967  0.35013057     0.74100
C751        C  0.63391318  0.87780949  0.29845163     0.44200
N752        N  0.64189173  0.92096104  0.38613741     0.02600
N753        N  0.65512957  0.86274791  0.33104014     0.02700
N754        N  0.74421476  0.81478054  0.39499464    -0.45200
H755        H  0.76914387  0.92019069  0.35844978     0.08500
N756        N  0.73068365  0.87114059  0.34167830     0.03000
N757        N  0.65370855  0.82368330  0.37047207     0.02800
C758        C  0.63087660  0.79209663  0.38464219     0.44400
N759        N  0.66240462  0.93016542  0.39841971    -0.23800
C760        C  0.74991501  0.85809925  0.43791336    -0.04800
N761        N  0.72385542  0.94997279  0.39367508    -0.44900
N762        N  0.65122633  0.79823245  0.37000260    -0.45200
C763        C  0.74111686  0.86581622  0.46359931     0.44100
N764        N  0.72921066  0.83115359  0.38207450     0.03000
N765        N  0.66100476  0.89109080  0.43772620    -0.23900
N766        N  0.73547165  0.91065981  0.38158825    -0.24400
N767        N  0.64023971  0.87983047  0.42787876     0.02700
H768        H  0.67333031  0.90162559  0.47609780     0.08500
H769        H  0.60366837  0.82070196  0.40703548     0.08600
N770        N  0.70996061  0.81964661  0.37009488    -0.24400
N771        N  0.63746701  0.87755103  0.34273756    -0.24000
N772        N  0.71729425  0.88456913  0.43520922     0.03000
C773        C  0.73725128  0.87907591  0.30170614     0.44400
C774        C  0.66174566  0.95606047  0.39881594    -0.05300
N775        N  0.63597550  0.83614315  0.38453122    -0.24000
H776        H  0.60655576  0.90131916  0.32596316     0.08600
N777        N  0.74691601  0.88276084  0.32561372    -0.45200
H778        H  0.67569356  0.96839308  0.40830964     0.08500
C779        C  0.63521820  0.88068245  0.46992651     0.44200
C780        C  0.75262104  0.92630022  0.37006303    -0.04800
Co781      Co  0.68992767  0.90773562  0.41665520     0.73800
N782        N  0.62668278  0.94057316  0.37773196    -0.45000
C783        C  0.73374582  0.79125376  0.39170826     0.44500
N784        N  0.72131141  0.88279793  0.46054029    -0.44900
Co785      Co  0.63735927  0.87868568  0.38535219     0.73900
C786        C  0.62034424  0.81732508  0.39468978    -0.05300
C787        C  0.71426470  0.86321654  0.30393801    -0.04800
N788        N  0.73391389  0.87058065  0.42162110    -0.24400
N789        N  0.65353445  0.86235722  0.30546357    -0.45100
H790        H  0.69870848  0.77931562  0.36718978     0.08500
C791        C  0.65944512  0.89238936  0.46348460    -0.05300
Cl792      Cl  0.68514477  0.87469673  0.38345016    -0.48300
C793        C  0.63847352  0.96321236  0.38523273     0.44300
H794        H  0.76619860  0.84580467  0.43240737     0.08500
N795        N  0.62378103  0.87314229  0.44704186    -0.45000
C796        C  0.99961072  0.80783369  0.37978564     0.44100
N797        N  0.02634717  0.83350929  0.39737992     0.03000
C798        C  0.03781686  0.96465273  0.37816488    -0.04900
H799        H  0.04136803  0.90259797  0.29230995     0.08500
C800        C  0.12141340  0.86816162  0.32254649    -0.05200
Co801      Co  0.01377171  0.88867938  0.38669438     0.74200
N802        N  0.03298847  0.89967321  0.33342985    -0.24400
Co803      Co  0.06384399  0.91646598  0.35218724     0.74100
C804        C  0.11000155  0.87885116  0.29805317     0.44200
N805        N  0.10341630  0.83487209  0.38512927     0.02600
N806        N  0.08969525  0.89414539  0.33132866     0.02700
N807        N  0.00596768  0.94521299  0.40114336    -0.45200
H808        H  0.97471703  0.84141087  0.36349270     0.08500
N809        N  0.01364022  0.88939545  0.34660087     0.03000
N810        N  0.09418834  0.93283586  0.37085017     0.02800
C811        C  0.11829827  0.96392886  0.38380115     0.44400
N812        N  0.08283732  0.82579216  0.39755660    -0.23800
C813        C  0.00123762  0.90032730  0.44461655    -0.04800
N814        N  0.02096894  0.80861836  0.39464900    -0.44900
N815        N  0.09734375  0.95819952  0.37007474    -0.45200
C816        C  0.01151388  0.89123038  0.46934123     0.44100
N817        N  0.01965804  0.92817145  0.38762613     0.03000
N818        N  0.08743961  0.86335355  0.43802332    -0.23900
N819        N  0.00937702  0.84888968  0.38581109    -0.24400
N820        N  0.10768017  0.87523964  0.42768034     0.02700
H821        H  0.07593966  0.85252396  0.47671672     0.08500
H822        H  0.14543064  0.93450602  0.40537996     0.08600
N823        N  0.03842628  0.93894017  0.37407003    -0.24400
N824        N  0.10746330  0.87898522  0.34240939    -0.24000
N825        N  0.03182176  0.87204767  0.43865062     0.03000
C826        C  0.00496515  0.88180777  0.30708583     0.44400
C827        C  0.08277505  0.79984651  0.39718880    -0.05300
N828        N  0.11194817  0.91984212  0.38432849    -0.24000
H829        H  0.13761138  0.85489543  0.32479293     0.08600
N830        N  0.99615773  0.87854890  0.33146019    -0.45200
H831        H  0.06884981  0.78759178  0.40694025     0.08500
C832        C  0.11350845  0.87416919  0.46969915     0.44200
C833        C  0.99134297  0.83432169  0.37432696    -0.04800
Co834      Co  0.05710081  0.84852321  0.41787952     0.73800
N835        N  0.11809540  0.81512485  0.37612482    -0.45000
C836        C  0.01683990  0.96845899  0.39672032     0.44500
N837        N  0.02985293  0.87321311  0.46423638    -0.44900
Co838      Co  0.10909708  0.87719213  0.38495984     0.73900
C839        C  0.12841940  0.93831951  0.39370275    -0.05300
C840        C  0.02892474  0.89624171  0.30800145    -0.04800
N841        N  0.01521035  0.88751589  0.42674374    -0.24400
N842        N  0.09071997  0.89466927  0.30563336    -0.45100
H843        H  0.05044462  0.97886465  0.36935977     0.08500
C844        C  0.08962164  0.86168302  0.46373090    -0.05300
Cl845      Cl  0.06125271  0.88264479  0.38539981    -0.48300
C846        C  0.10580123  0.79249965  0.38307807     0.44300
H847        H  0.98547232  0.91387642  0.44076612     0.08500
N848        N  0.12416380  0.88244087  0.44652539    -0.45000
C849        C  0.87045162  0.00871539  0.30807424     0.44100
N850        N  0.88896936  0.03315189  0.33540913     0.03000
C851        C  0.86618332  0.03774676  0.46678233    -0.04900
H852        H  0.78265324  0.04277882  0.40531766     0.08500
C853        C  0.81316442  0.12632770  0.37362296    -0.05200
Co854      Co  0.87753498  0.01781443  0.38978625     0.74200
N855        N  0.82394104  0.03615133  0.40066562    -0.24400
Co856      Co  0.84218273  0.06643366  0.41918700     0.74100
C857        C  0.78868838  0.11409371  0.38315648     0.44200
N858        N  0.87680209  0.10984082  0.34058539     0.02600
N859        N  0.82186268  0.09310764  0.39757736     0.02700
N860        N  0.88975460  0.00662091  0.44638923    -0.45200
H861        H  0.85374613  0.98233766  0.33998350     0.08500
N862        N  0.83754489  0.01730926  0.38981020     0.03000
N863        N  0.86010287  0.09615124  0.43756267     0.02800
C864        C  0.87085458  0.11968766  0.47003165     0.44400
N865        N  0.88967285  0.08972039  0.33087703    -0.23800
C866        C  0.93528477  0.00660203  0.40370167    -0.04800
N867        N  0.88583507  0.02952410  0.31019726    -0.44900
N868        N  0.85811335  0.09853158  0.46298719    -0.45200
C869        C  0.95986315  0.01818584  0.39629513     0.44100
N870        N  0.87739681  0.02169237  0.42963364     0.03000
N871        N  0.92886377  0.09229365  0.36934807    -0.23900
N872        N  0.87719648  0.01554648  0.34970177    -0.24400
N873        N  0.91830026  0.11203823  0.38207602     0.02700
H874        H  0.96761506  0.08126011  0.35813173     0.08500
H875        H  0.89246869  0.14843709  0.44250455     0.08600
N876        N  0.86347683  0.03999975  0.44097539    -0.24400
N877        N  0.83299616  0.11179932  0.38379845    -0.24000
N878        N  0.92959219  0.03667769  0.37498209     0.03000
C879        C  0.79823424  0.00713139  0.38327949     0.44400
C880        C  0.89027925  0.09077145  0.30502466    -0.05300
N881        N  0.87351234  0.11466694  0.42580711    -0.24000
H882        H  0.81542392  0.14339626  0.36159479     0.08600
N883        N  0.82285798  0.99921998  0.37940963    -0.45200
H884        H  0.90046413  0.07735071  0.29244218     0.08500
C885        C  0.96028342  0.11761463  0.38177377     0.44200
C886        C  0.86512442  0.99888834  0.33399515    -0.04800
Co887      Co  0.90924111  0.06289381  0.35248142     0.73800
N888        N  0.86806376  0.12519185  0.32127475    -0.45000
C889        C  0.88418403  0.01611185  0.47007452     0.44500
N890        N  0.95508045  0.03604791  0.37786963    -0.44900
Co891      Co  0.87548444  0.11359093  0.38310645     0.73900
C892        C  0.88146782  0.13084512  0.44524025    -0.05300
C893        C  0.79861426  0.03120727  0.39783285    -0.04800
N894        N  0.91757180  0.01964497  0.38970674    -0.24400
N895        N  0.79621729  0.09395525  0.39774760    -0.45100
H896        H  0.85658204  0.04952725  0.48132022     0.08500
C897        C  0.95453409  0.09442069  0.36803694    -0.05300
Cl898      Cl  0.87607446  0.06549458  0.38612470    -0.48300
C899        C  0.87610263  0.11386912  0.29840469     0.44300
H900        H  0.93142531  0.99124877  0.41756297     0.08500
N901        N  0.93703205  0.12815534  0.39020199    -0.45000
C902        C  0.79715744  0.87094673  0.51638844     0.44100
N903        N  0.82427081  0.88979409  0.54094627     0.03000
C904        C  0.95581973  0.86798982  0.54695896    -0.04900
H905        H  0.89576698  0.78399073  0.55754828     0.08500
C906        C  0.86326763  0.81786460  0.63743441    -0.05200
Co907      Co  0.87861577  0.87691056  0.52671903     0.74200
N908        N  0.89051782  0.82464629  0.54810662    -0.24400
Co909      Co  0.90878460  0.84503207  0.57700857     0.74100
C910        C  0.87401735  0.79305972  0.62643930     0.44200
N911        N  0.82906528  0.88118960  0.61818554     0.02600
N912        N  0.88788440  0.82582438  0.60468279     0.02700
N913        N  0.93480491  0.88907703  0.51448739    -0.45200
H914        H  0.82940576  0.85204292  0.49176189     0.08500
N915        N  0.87901027  0.83679322  0.52870589     0.03000
N916        N  0.92651049  0.86523768  0.60561411     0.02800
C917        C  0.95864064  0.87970495  0.62741915     0.44400
N918        N  0.81966437  0.89316530  0.59739021    -0.23800
C919        C  0.89132565  0.93385717  0.51128315    -0.04800
N920        N  0.79908334  0.88738973  0.53655310    -0.44900
N921        N  0.95202033  0.86489048  0.60748100    -0.45200
C922        C  0.88388587  0.95920925  0.52132583     0.44100
N923        N  0.91841459  0.87723839  0.53022543     0.03000
N924        N  0.85793621  0.93273153  0.59894717    -0.23900
N925        N  0.83867748  0.87660039  0.52435858    -0.24400
N926        N  0.86986758  0.92279237  0.61949253     0.02700
H927        H  0.84691334  0.97128989  0.58683190     0.08500
H928        H  0.93043642  0.90234851  0.65492720     0.08600
N929        N  0.93009567  0.86485326  0.54935158    -0.24400
N930        N  0.87325719  0.83745343  0.62251502    -0.24000
N931        N  0.86396088  0.93023926  0.54286346     0.03000
C932        C  0.87268857  0.79671184  0.52160888     0.44400
C933        C  0.79385088  0.89412975  0.59806450    -0.05300
N934        N  0.91430110  0.87940389  0.62339975    -0.24000
H935        H  0.85061050  0.82046333  0.65400797     0.08600
N936        N  0.86828175  0.82067555  0.51203161    -0.45200
H937        H  0.78154031  0.90390955  0.58410703     0.08500
C938        C  0.86892085  0.96489402  0.62452451     0.44200
C939        C  0.82318351  0.86416586  0.50781488    -0.04800
Co940      Co  0.84136164  0.91150657  0.56995386     0.73800
N941        N  0.80950553  0.87380335  0.63383941    -0.45000
C942        C  0.95856699  0.88462454  0.52432030     0.44500
N943        N  0.86635260  0.95566265  0.54032734    -0.44900
Co944      Co  0.87157461  0.88021906  0.62245838     0.73900
C945        C  0.93349006  0.88975097  0.63842587    -0.05300
C946        C  0.88793031  0.79898107  0.54505918    -0.04800
N947        N  0.87821084  0.91706616  0.52613778    -0.24400
N948        N  0.88886155  0.80024317  0.60649399    -0.45100
H949        H  0.97062506  0.85966292  0.55940552     0.08500
C950        C  0.85646386  0.95854551  0.60056804    -0.05300
Cl951      Cl  0.87499163  0.87839280  0.57457619    -0.48300
C952        C  0.78686269  0.88146916  0.62176449     0.44300
H953        H  0.90446373  0.92892737  0.49557168     0.08500
N954        N  0.87694743  0.94187550  0.63572836    -0.45000
C955        C  0.12793828  0.04235097  0.39701739     0.44100
N956        N  0.12698643  0.08452686  0.40142664     0.03000
C957        C  0.17540958  0.14350784  0.51184163    -0.04900
H958        H  0.09249195  0.08051467  0.52555148     0.08500
C959        C  0.04215857  0.14033735  0.47306412    -0.05200
Co960      Co  0.15565196  0.09582241  0.45066963     0.74200
N961        N  0.11898781  0.09132201  0.49482503    -0.24400
Co962      Co  0.11922744  0.13127262  0.49399717     0.74100
C963        C  0.03903220  0.12373455  0.49554267     0.44200
N964        N  0.07101695  0.14304323  0.41507577     0.02600
N965        N  0.07925794  0.13143982  0.49071887     0.02700
N966        N  0.19846585  0.11975564  0.48272193    -0.45200
H967        H  0.14967750  0.03641479  0.43485383     0.08500
N968        N  0.13289255  0.07768804  0.47819090     0.03000
N969        N  0.11944776  0.17121109  0.49186047     0.02800
C970        C  0.12609933  0.21117797  0.49943611     0.44400
N971        N  0.08300338  0.12866825  0.39729424    -0.23800
C972        C  0.20341515  0.11231999  0.42188428    -0.04800
N973        N  0.12009405  0.06523169  0.38533728    -0.44900
N974        N  0.13033179  0.18707373  0.50864875    -0.45200
C975        C  0.21039821  0.12549583  0.39841052     0.44100
N976        N  0.17318356  0.11751994  0.47911629     0.03000
N977        N  0.12424914  0.16996676  0.39791687    -0.23900
N978        N  0.13867567  0.07473810  0.42216982    -0.24400
N979        N  0.11011500  0.18170627  0.41606916     0.02700
H980        H  0.14561372  0.18683623  0.36546265     0.08500
H981        H  0.10285895  0.22437341  0.46361481     0.08600
N982        N  0.15930015  0.13103492  0.49588501    -0.24400
N983        N  0.06785676  0.14366501  0.47133453    -0.24000
N984        N  0.16817630  0.12585415  0.40221407     0.03000
C985        C  0.11225528  0.04951182  0.50012142     0.44400
C986        C  0.06372776  0.11897617  0.38195722    -0.05300
N987        N  0.10792096  0.18352898  0.47259412    -0.24000
H988        H  0.02761877  0.14836085  0.46021141     0.08600
N989        N  0.12989372  0.05235406  0.48105540    -0.45200
H990        H  0.06665202  0.10659279  0.36527111     0.08500
C991        C  0.12302079  0.21425841  0.39370614     0.44200
C992        C  0.14010897  0.04895494  0.42094886    -0.04800
Co993      Co  0.12566282  0.12721134  0.39815292     0.73800
N994        N  0.04553323  0.14417196  0.41283360    -0.45000
C995        C  0.20115887  0.13642808  0.50251691     0.44500
N996        N  0.18770969  0.13357635  0.38668450    -0.44900
Co997      Co  0.08921749  0.16307804  0.44373272     0.73900
C998        C  0.11072736  0.20917860  0.47592802    -0.05300
C999        C  0.10548243  0.07507965  0.50986477    -0.04800
N1000       N  0.17758056  0.11351683  0.42279823    -0.24400
N1001       N  0.06256648  0.11946684  0.50608669    -0.45100
H1002       H  0.16978091  0.15596923  0.52785028     0.08500
C1003       C  0.13362692  0.18948322  0.38252587    -0.05300
Cl1004     Cl  0.12251756  0.12936162  0.44607247    -0.48300
C1005       C  0.03874675  0.12968816  0.39267978     0.44300
H1006       H  0.21577474  0.10249157  0.43575258     0.08500
N1007       N  0.10889585  0.20721114  0.41412144    -0.45000
C1008       C  0.62410142  0.04131003  0.37097030     0.44100
N1009       N  0.62203997  0.08355615  0.36755544     0.03000
C1010       C  0.56820667  0.14602943  0.26113831    -0.04900
H1011       H  0.64868385  0.08195819  0.24120229     0.08500
C1012       C  0.70264214  0.13952436  0.29274032    -0.05200
Co1013     Co  0.59032580  0.09590228  0.32017426     0.74200
N1014       N  0.62460169  0.09210450  0.27413906    -0.24400
Co1015     Co  0.62459383  0.13202246  0.27614153     0.74100
C1016       C  0.70433263  0.12330356  0.26979322     0.44200
N1017       N  0.67661254  0.14141846  0.35276720     0.02600
N1018       N  0.66453200  0.13139533  0.27748282     0.02700
N1019       N  0.54595532  0.12156262  0.28993730    -0.45200
H1020       H  0.60006855  0.03540360  0.33449466     0.08500
N1021       N  0.61148849  0.07814984  0.29103062     0.03000
N1022       N  0.62443702  0.17175395  0.27901380     0.02800
C1023       C  0.61775078  0.21190238  0.27140626     0.44400
N1024       N  0.66517975  0.12693486  0.37072910    -0.23800
C1025       C  0.54397818  0.11285761  0.35109301    -0.04800
N1026       N  0.63141537  0.06418932  0.38249498    -0.44900
N1027       N  0.61301128  0.18789806  0.26265630    -0.45200
C1028       C  0.53802422  0.12620411  0.37471094     0.44100
N1029       N  0.57133839  0.11891701  0.29303867     0.03000
N1030       N  0.62322001  0.16876429  0.37227979    -0.23900
N1031       N  0.60931398  0.07394008  0.34748258    -0.24400
N1032       N  0.63702296  0.18091859  0.35423402     0.02700
H1033       H  0.60022982  0.18481219  0.40410893     0.08500
H1034       H  0.64309098  0.22438109  0.30586700     0.08600
N1035       N  0.58468094  0.13273869  0.27623187    -0.24400
N1036       N  0.67708040  0.14314789  0.29626284    -0.24000
N1037       N  0.58004844  0.12523940  0.36943310     0.03000
C1038       C  0.62999538  0.05039870  0.26654972     0.44400
C1039       C  0.68484103  0.11608628  0.38498890    -0.05300
N1040       N  0.63698115  0.18369830  0.29762754    -0.24000
H1041       H  0.71798123  0.14717571  0.30470571     0.08600
N1042       N  0.61368709  0.05288050  0.28685391    -0.45200
H1043       H  0.68237072  0.10315991  0.40136398     0.08500
C1044       C  0.62216091  0.21306089  0.37640142     0.44200
C1045       C  0.60958578  0.04803724  0.34817097    -0.04800
Co1046     Co  0.62261381  0.12607349  0.37156721     0.73800
N1047       N  0.70222574  0.14146434  0.35384700    -0.45000
C1048       C  0.54267672  0.13900048  0.27062739     0.44500
N1049       N  0.56119822  0.13364541  0.38554972    -0.44900
Co1050     Co  0.65707150  0.16246768  0.32530363     0.73900
C1051       C  0.63425544  0.20942040  0.29421039    -0.05300
C1052       C  0.63676155  0.07617755  0.25755567    -0.04800
N1053       N  0.56976225  0.11322726  0.34928759    -0.24400
N1054       N  0.68017900  0.11956031  0.26087246    -0.45100
H1055       H  0.57345231  0.15854560  0.24504071     0.08500
C1056       C  0.61268649  0.18790668  0.38748196    -0.05300
Cl1057     Cl  0.62365657  0.12906658  0.32383812    -0.48300
C1058       C  0.70950784  0.12608217  0.37341362     0.44300
H1059       H  0.53096132  0.10373784  0.33750318     0.08500
N1060       N  0.63688835  0.20649208  0.35609884    -0.45000
C1061       C  0.13296522  0.76508111  0.05033355     0.44100
N1062       N  0.12609567  0.77097709  0.09073999     0.03000
C1063       C  0.06286217  0.87711103  0.14455670    -0.04900
H1064       H  0.14490784  0.89611929  0.07508276     0.08500
C1065       C  0.20459067  0.84508229  0.14791208    -0.05200
Co1066     Co  0.09160251  0.81630832  0.10044998     0.74200
N1067       N  0.12358592  0.86399762  0.09240358    -0.24400
Co1068     Co  0.12518424  0.86392650  0.13498364     0.74100
C1069       C  0.20969603  0.86837478  0.13381457     0.44200
N1070       N  0.17939451  0.78675333  0.14343262     0.02600
N1071       N  0.16785276  0.86259191  0.13534112     0.02700
N1072       N  0.04588179  0.84434651  0.12134287    -0.45200
H1073       H  0.10583984  0.79870458  0.03868393     0.08500
N1074       N  0.10989878  0.84556407  0.08102971     0.03000
N1075       N  0.12644211  0.86061892  0.17752470     0.02800
C1076       C  0.12396194  0.86449196  0.21969659     0.44400
N1077       N  0.16652439  0.76954308  0.12985392    -0.23800
C1078       C  0.04797119  0.78224538  0.12401181    -0.04800
N1079       N  0.13836877  0.75564125  0.07413426    -0.44900
N1080       N  0.11619501  0.87538721  0.19652320    -0.45200
C1081       C  0.04748463  0.75885349  0.13978884     0.44100
N1082       N  0.07151331  0.84344670  0.12142701     0.03000
N1083       N  0.12732428  0.76695707  0.17081589    -0.23900
N1084       N  0.11244502  0.78932309  0.07915474    -0.24400
N1085       N  0.13983673  0.78448351  0.18436884     0.02700
H1086       H  0.10374415  0.73422550  0.18190162     0.08500
H1087       H  0.14960012  0.82892090  0.22647859     0.08600
N1088       N  0.08268865  0.86232856  0.13467969    -0.24400
N1089       N  0.17889029  0.84292202  0.14783330    -0.24000
N1090       N  0.08682533  0.76825205  0.13180576     0.03000
C1091       C  0.12288906  0.86756430  0.04805953     0.44400
C1092       C  0.18332509  0.75493723  0.11643776    -0.05300
N1093       N  0.14003331  0.84109726  0.18758237    -0.24000
H1094       H  0.21808060  0.83193949  0.15730901     0.08600
N1095       N  0.10901195  0.84712486  0.05544875    -0.45200
H1096       H  0.17852546  0.73878231  0.10400493     0.08500
C1097       C  0.12169447  0.76071194  0.21265387     0.44200
C1098       C  0.11521218  0.78686636  0.05339486    -0.04800
Co1099     Co  0.12674438  0.76827253  0.13076550     0.73800
N1100       N  0.20484336  0.78450554  0.14038926    -0.45000
C1101       C  0.03835972  0.86476535  0.13542312     0.44500
N1102       N  0.07209822  0.75077806  0.14334321    -0.44900
Co1103     Co  0.15969801  0.81378741  0.16601395     0.73900
C1104       C  0.13967687  0.84216667  0.21350221    -0.05300
C1105       C  0.13295044  0.87913803  0.07267910    -0.04800
N1106       N  0.07328263  0.78676826  0.12035155    -0.24400
N1107       N  0.18615562  0.87879161  0.12630664    -0.45100
H1108       H  0.06513735  0.89443383  0.15611515     0.08500
C1109       C  0.11545393  0.75071754  0.18718292    -0.05300
Cl1110     Cl  0.12579514  0.81608193  0.13310469    -0.48300
C1111       C  0.20847542  0.76539859  0.12291279     0.44300
H1112       H  0.03200437  0.79367990  0.11631529     0.08500
N1113       N  0.13744777  0.78116369  0.20974901    -0.45000
C1114       C  0.04211777  0.63452100  0.26990656     0.44100
N1115       N  0.08209956  0.62649201  0.27687337     0.03000
C1116       C  0.13490655  0.56796448  0.38574241    -0.04900
H1117       H  0.06518386  0.65212632  0.40067686     0.08500
C1118       C  0.13846995  0.70809460  0.34845998    -0.05200
Co1119     Co  0.09042511  0.59402966  0.32390065     0.74200
N1120       N  0.08241780  0.62865361  0.36988493    -0.24400
Co1121     Co  0.12485183  0.62968600  0.37038230     0.74100
C1122       C  0.12361184  0.71446607  0.37121855     0.44200
N1123       N  0.13537062  0.67919551  0.29100809     0.02600
N1124       N  0.12545854  0.67225162  0.36710843     0.02700
N1125       N  0.11142300  0.54953916  0.35394584    -0.45200
H1126       H  0.02907670  0.60938657  0.30440077     0.08500
N1127       N  0.07104795  0.61426157  0.35196945     0.03000
N1128       N  0.16727567  0.63045068  0.36775704     0.02800
C1129       C  0.20921317  0.62904381  0.37237442     0.44400
N1130       N  0.12195612  0.66597811  0.27392082    -0.23800
C1131       C  0.11382704  0.54795237  0.29255334    -0.04800
N1132       N  0.06619804  0.63866558  0.26077574    -0.44900
N1133       N  0.18613086  0.62174256  0.38360006    -0.45200
C1134       C  0.13014305  0.54582990  0.26962252     0.44100
N1135       N  0.11102695  0.57513269  0.35225068     0.03000
N1136       N  0.16178117  0.62526327  0.27403752    -0.23900
N1137       N  0.06986720  0.61403617  0.29553908    -0.24400
N1138       N  0.17534758  0.63832576  0.29113810     0.02700
H1139       H  0.17257027  0.60002757  0.24229587     0.08500
H1140       H  0.21624748  0.65191650  0.33526209     0.08600
N1141       N  0.12444571  0.58713471  0.37053102    -0.24400
N1142       N  0.13845342  0.68220127  0.34725987    -0.24000
N1143       N  0.12220828  0.58585695  0.27660320     0.03000
C1144       C  0.03816688  0.62919102  0.37290282     0.44400
C1145       C  0.10978000  0.68270501  0.25810001    -0.05300
N1146       N  0.17750525  0.64253701  0.34750654    -0.24000
H1147       H  0.14803479  0.72095853  0.33492928     0.08600
N1148       N  0.04546381  0.61404021  0.35324318    -0.45200
H1149       H  0.09775149  0.67770454  0.24169006     0.08500
C1150       C  0.20354834  0.61822524  0.26829836     0.44200
C1151       C  0.04425142  0.61760132  0.29245285    -0.04800
Co1152     Co  0.12194332  0.62591645  0.27470944     0.73800
N1153       N  0.13340791  0.70458958  0.28769956    -0.45000
C1154       C  0.12593858  0.54292600  0.37435172     0.44500
N1155       N  0.13403288  0.56989715  0.26027354    -0.44900
Co1156     Co  0.15684715  0.66066404  0.31917109     0.73900
C1157       C  0.20327448  0.64266228  0.34890414    -0.05300
C1158       C  0.06275105  0.63927969  0.38430799    -0.04800
N1159       N  0.11030411  0.57358879  0.29559417    -0.24400
N1160       N  0.11588298  0.69135837  0.38221364    -0.45100
H1161       H  0.14697160  0.57099830  0.40258903     0.08500
C1162       C  0.17800059  0.61217416  0.25847837    -0.05300
Cl1163     Cl  0.12351269  0.62758852  0.32257209    -0.48300
C1164       C  0.11691024  0.70810862  0.26784451     0.44300
H1165       H  0.10589597  0.53280363  0.30475000     0.08500
N1166       N  0.20068711  0.63516254  0.28799173    -0.45000
C1167       C  0.86338882  0.12583801  0.04856505     0.44100
N1168       N  0.85775174  0.12555758  0.09054478     0.03000
C1169       C  0.74707963  0.07427340  0.14681359    -0.04900
H1170       H  0.73184246  0.15646512  0.08422439     0.08500
C1171       C  0.78333971  0.20786696  0.14420896    -0.05200
Co1172     Co  0.80889469  0.09575370  0.10038294     0.74200
N1173       N  0.76393326  0.13153568  0.09527640    -0.24400
Co1174     Co  0.76410388  0.13066268  0.13530790     0.74100
C1175       C  0.76154340  0.21057472  0.12664807     0.44200
N1176       N  0.84178405  0.18026103  0.14912814     0.02600
N1177       N  0.76664163  0.17052610  0.13561852     0.02700
N1178       N  0.77690896  0.05193591  0.12322300    -0.45200
H1179       H  0.82620380  0.10363822  0.04134620     0.08500
N1180       N  0.78118448  0.11824398  0.08176669     0.03000
N1181       N  0.76551549  0.12963088  0.17532891     0.02800
C1182       C  0.75837686  0.12103350  0.21516951     0.44400
N1183       N  0.85999775  0.16875227  0.13487293     0.00200
C1184       C  0.83798820  0.04818950  0.11778657    -0.04800
N1185       N  0.87418813  0.13331905  0.07177615    -0.44900
N1186       N  0.74908624  0.11770650  0.19101561    -0.45200
C1187       C  0.86100709  0.04135929  0.13179818     0.44100
N1188       N  0.78029951  0.07729809  0.12137897     0.03000
N1189       N  0.85944689  0.12647274  0.17576842    -0.23900
N1190       N  0.83757962  0.11373420  0.08013590    -0.24400
N1191       N  0.84088686  0.14002501  0.18758902     0.02700
H1192       H  0.89215639  0.10506448  0.19225245     0.08500
H1193       H  0.79335679  0.14458614  0.22873095     0.08600
N1194       N  0.76305958  0.09072396  0.13476981    -0.24400
N1195       N  0.78537635  0.18220227  0.14826028    -0.24000
N1196       N  0.85669537  0.08354637  0.13155384     0.03000
C1197       C  0.75822299  0.13775517  0.05333361     0.44400
C1198       C  0.87496780  0.18841101  0.12523203    -0.05300
N1199       N  0.78439344  0.14112489  0.18790029    -0.24000
H1200       H  0.79574746  0.22267557  0.15213445     0.08600
N1201       N  0.77808107  0.12087807  0.05637760    -0.45200
H1202       H  0.89176993  0.18591221  0.11285505     0.08500
C1203       C  0.86325324  0.12627166  0.22002028     0.44200
C1204       C  0.83956728  0.11304894  0.05438234    -0.04800
Co1205     Co  0.85998741  0.12605653  0.13314849     0.73800
N1206       N  0.84339417  0.20581421  0.15020300    -0.45000
C1207       C  0.75683209  0.04877966  0.13962539     0.44500
N1208       N  0.87212471  0.06411443  0.14001872    -0.44900
Co1209     Co  0.81307652  0.16100396  0.16839713     0.73900
C1210       C  0.78126466  0.13708978  0.21340158    -0.05300
C1211       C  0.74831890  0.14434814  0.07889251    -0.04800
N1212       N  0.83671683  0.07402012  0.11865628    -0.24400
N1213       N  0.75159503  0.18688946  0.12266108    -0.45100
H1214       H  0.73062619  0.07953576  0.15894134     0.08500
C1215       C  0.87484485  0.11670084  0.19510600    -0.05300
Cl1216     Cl  0.81205654  0.12834459  0.13429063    -0.48300
C1217       C  0.86355352  0.21313004  0.13576998     0.44300
H1218       H  0.82455592  0.03570090  0.10777138     0.08500
N1219       N  0.84258136  0.14042007  0.21318003    -0.45000
C1220       C  0.75852174  0.54695550  0.63685837     0.44100
N1221       N  0.76608374  0.58695244  0.62994517     0.03000
C1222       C  0.87580513  0.63892081  0.57374631    -0.04900
H1223       H  0.89163375  0.57014601  0.65707946     0.08500
C1224       C  0.83676413  0.64223410  0.71381318    -0.05200
Co1225     Co  0.81419995  0.59475957  0.59946115     0.74200
N1226       N  0.85999349  0.58693212  0.63439565    -0.24400
Co1227     Co  0.85996001  0.62954373  0.63559989     0.74100
C1228       C  0.86042568  0.62894565  0.72012857     0.44200
N1229       N  0.77953111  0.63892628  0.68422427     0.02600
N1230       N  0.85630315  0.63003196  0.67803884     0.02700
N1231       N  0.84477238  0.61438719  0.55557334    -0.45200
H1232       H  0.79427529  0.53368694  0.61341765     0.08500
N1233       N  0.84203336  0.57528807  0.62026401     0.03000
N1234       N  0.85681025  0.67214933  0.63696282     0.02800
C1235       C  0.86112892  0.71430860  0.63696648     0.44400
N1236       N  0.76256143  0.62614031  0.67026268    -0.23800
C1237       C  0.78415380  0.61884748  0.55279818    -0.04800
N1238       N  0.74931005  0.57109552  0.64100468    -0.44900
N1239       N  0.87246835  0.69136153  0.62889170    -0.45200
C1240       C  0.76177699  0.63599878  0.55023186     0.44100
N1241       N  0.84278152  0.61480231  0.58110466     0.03000
N1242       N  0.76378509  0.66725850  0.63060736    -0.23900
N1243       N  0.78530345  0.57454355  0.61834510    -0.24400
N1244       N  0.78060798  0.67999896  0.64478914     0.02700
H1245       H  0.73337529  0.68000385  0.60449585     0.08500
H1246       H  0.82413971  0.72046351  0.66028511     0.08600
N1247       N  0.86061165  0.62880402  0.59303603    -0.24400
N1248       N  0.83574258  0.64202427  0.68796967    -0.24000
N1249       N  0.76757890  0.62777411  0.59035234     0.03000
C1250       C  0.86397825  0.54265199  0.63460469     0.44400
C1251       C  0.74664202  0.61332251  0.68628481    -0.05300
N1252       N  0.83653852  0.68198535  0.64949575    -0.24000
H1253       H  0.82299301  0.65170311  0.72658103     0.08600
N1254       N  0.84385917  0.54968487  0.61986042    -0.45200
H1255       H  0.73050347  0.60131296  0.68059702     0.08500
C1256       C  0.75932617  0.70961749  0.62513121     0.44200
C1257       C  0.78196566  0.54891246  0.62129703    -0.04800
Co1258     Co  0.76428516  0.62704603  0.63021846     0.73800
N1259       N  0.77603411  0.63591905  0.70949529    -0.45000
C1260       C  0.86486788  0.62897898  0.54880117     0.44500
N1261       N  0.75199977  0.64016078  0.57410413    -0.44900
Co1262     Co  0.80801721  0.66074889  0.66674234     0.73900
C1263       C  0.83780390  0.70779227  0.65052735    -0.05300
C1264       C  0.87501601  0.56745567  0.64462623    -0.04800
N1265       N  0.78650947  0.61518857  0.57848153    -0.24400
N1266       N  0.87207151  0.62173736  0.69714282    -0.45100
H1267       H  0.89246011  0.65121699  0.57664252     0.08500
C1268       C  0.74906404  0.68449209  0.61762691    -0.05300
Cl1269     Cl  0.81212124  0.62799886  0.63301653    -0.48300
C1270       C  0.75616757  0.61938459  0.71207803     0.44300
H1271       H  0.79646773  0.61055969  0.53787553     0.08500
N1272       N  0.77827776  0.70548440  0.64250768    -0.45000
C1273       C  0.12239795  0.04162175  0.87127477     0.44100
N1274       N  0.12126469  0.08387872  0.86707499     0.03000
C1275       C  0.07084712  0.14382401  0.75713105    -0.04900
H1276       H  0.15303036  0.08138211  0.74219130     0.08500
C1277       C  0.20394734  0.14131297  0.79371816    -0.05200
Co1278     Co  0.09124605  0.09581180  0.81850903     0.74200
N1279       N  0.12751500  0.09196457  0.77392389    -0.24400
Co1280     Co  0.12657185  0.13207022  0.77527373     0.74100
C1281       C  0.20633598  0.12513229  0.77073280     0.44200
N1282       N  0.17606705  0.14240223  0.85346600     0.02600
N1283       N  0.16630697  0.13239074  0.77781124     0.02700
N1284       N  0.04776471  0.11949216  0.78550385    -0.45200
H1285       H  0.09942255  0.03560421  0.83413453     0.08500
N1286       N  0.11397500  0.07812182  0.79058918     0.03000
N1287       N  0.12545636  0.17202507  0.77802852     0.02800
C1288       C  0.11713429  0.21208143  0.77151685     0.44400
N1289       N  0.16422540  0.12744831  0.87077350    -0.23800
C1290       C  0.04374273  0.11278655  0.84799255    -0.04800
N1291       N  0.12982462  0.06458804  0.88261159    -0.44900
N1292       N  0.11356931  0.18814224  0.76188475    -0.45200
C1293       C  0.03726888  0.12606875  0.87156311     0.44100
N1294       N  0.07299804  0.11796376  0.79017574     0.03000
N1295       N  0.12152549  0.16915495  0.87126892    -0.23900
N1296       N  0.10906954  0.07414852  0.84675776    -0.24400
N1297       N  0.13570918  0.18161093  0.85375675     0.02700
H1298       H  0.09658066  0.18464455  0.90188861     0.08500
H1299       H  0.14107456  0.22472885  0.80676290     0.08600
N1300       N  0.08679034  0.13171938  0.77367251    -0.24400
N1301       N  0.17822519  0.14439879  0.79684194    -0.24000
N1302       N  0.07928799  0.12531459  0.86720011     0.03000
C1303       C  0.13392610  0.05003720  0.76757018     0.44400
C1304       C  0.18357324  0.11574230  0.88480917    -0.05300
N1305       N  0.13714437  0.18407017  0.79718206    -0.24000
H1306       H  0.21892821  0.14923761  0.80597567     0.08600
N1307       N  0.11679613  0.05282928  0.78711908    -0.45200
H1308       H  0.18071138  0.10198861  0.90042661     0.08500
C1309       C  0.11887040  0.21347306  0.87511935     0.44200
C1310       C  0.10874502  0.04826715  0.84792470    -0.04800
Co1311     Co  0.12161555  0.12642727  0.87061896     0.73800
N1312       N  0.20169049  0.14195851  0.85482323    -0.45000
C1313       C  0.04514652  0.13617672  0.76544300     0.44500
N1314       N  0.06010388  0.13357404  0.88293103    -0.44900
Co1315     Co  0.15698777  0.16334096  0.82541887     0.73900
C1316       C  0.13335348  0.20971079  0.79442407    -0.05300
C1317       C  0.14060521  0.07579919  0.75824211    -0.04800
N1318       N  0.06955724  0.11330180  0.84675919    -0.24400
N1319       N  0.18244334  0.12088285  0.76148253    -0.45100
H1320       H  0.07662618  0.15586657  0.74085430     0.08500
C1321       C  0.10976022  0.18805391  0.88589947    -0.05300
Cl1322     Cl  0.12408326  0.12939288  0.82296199    -0.48300
C1323       C  0.20856201  0.12574294  0.87390991     0.44300
H1324       H  0.03108082  0.10353053  0.83416008     0.08500
N1325       N  0.13468962  0.20721803  0.85549682    -0.45000
C1326       C  0.63211186  0.26673895  0.04880903     0.44100
N1327       N  0.62520895  0.27190953  0.08929162     0.03000
C1328       C  0.56364839  0.37813811  0.14491957    -0.04900
H1329       H  0.64689472  0.39709673  0.07709183     0.08500
C1330       C  0.70491372  0.34405920  0.14866268    -0.05200
Co1331     Co  0.59166532  0.31777951  0.09974321     0.74200
N1332       N  0.62461626  0.36504470  0.09324274    -0.24400
Co1333     Co  0.62584807  0.36404618  0.13576942     0.74100
C1334       C  0.71023438  0.36816196  0.13604995     0.44200
N1335       N  0.67869785  0.28587723  0.14204884     0.02600
N1336       N  0.66842183  0.36227430  0.13638036     0.02700
N1337       N  0.54630608  0.34639722  0.12059126    -0.45200
H1338       H  0.60582699  0.30121214  0.03777285     0.08500
N1339       N  0.61077016  0.34713281  0.08122461     0.03000
N1340       N  0.62707621  0.35976384  0.17824530     0.02800
C1341       C  0.62563729  0.36308967  0.22057232     0.44400
N1342       N  0.66569148  0.26887650  0.12832826    -0.23800
C1343       C  0.54722672  0.28410420  0.12246697    -0.04800
N1344       N  0.63716307  0.25663931  0.07241146    -0.44900
N1345       N  0.61765530  0.37450701  0.19769496    -0.45200
C1346       C  0.54628610  0.26055514  0.13798376     0.44100
N1347       N  0.57191339  0.34487238  0.12110061     0.03000
N1348       N  0.62637476  0.26613219  0.16941572    -0.23900
N1349       N  0.61206620  0.29083256  0.07804168    -0.24400
N1350       N  0.63925367  0.28338377  0.18298093     0.02700
H1351       H  0.60248605  0.23358738  0.18068063     0.08500
H1352       H  0.65071090  0.32691510  0.22619839     0.08600
N1353       N  0.58330576  0.36315401  0.13500613    -0.24400
N1354       N  0.67921076  0.34194858  0.14798497    -0.24000
N1355       N  0.58580490  0.26916353  0.13012660     0.03000
C1356       C  0.62472831  0.36968027  0.04907764     0.44400
C1357       C  0.68247077  0.25424678  0.11481052    -0.05300
N1358       N  0.64042495  0.33978476  0.18770678    -0.24000
H1359       H  0.71819480  0.33055127  0.15781959     0.08600
N1360       N  0.61034616  0.34931837  0.05567631    -0.45200
H1361       H  0.67758696  0.23828995  0.10214963     0.08500
C1362       C  0.62128543  0.25970291  0.21145376     0.44200
C1363       C  0.61487549  0.28887009  0.05224977    -0.04800
Co1364     Co  0.62576861  0.26831547  0.12925127     0.73800
N1365       N  0.70411624  0.28353109  0.13898493    -0.45000
C1366       C  0.53900901  0.36664659  0.13502821     0.44500
N1367       N  0.57070710  0.25191050  0.14149830    -0.44900
Co1368     Co  0.65949774  0.31266639  0.16526714     0.73900
C1369       C  0.64067064  0.34048301  0.21365762    -0.05300
C1370       C  0.63460206  0.38045616  0.07408031    -0.04800
N1371       N  0.57265358  0.28813074  0.11889778    -0.24400
N1372       N  0.68685345  0.37895415  0.12864643    -0.45100
H1373       H  0.56613209  0.39515232  0.15689054     0.08500
C1374       C  0.61453476  0.24986240  0.18591225    -0.05300
Cl1375     Cl  0.62564264  0.31619157  0.13256861    -0.48300
C1376       C  0.70774055  0.26454697  0.12141243     0.44300
H1377       H  0.53149786  0.29607569  0.11506726     0.08500
N1378       N  0.63708622  0.28000269  0.20832399    -0.45000
C1379       C  0.03675168  0.36737999  0.63406038     0.44100
N1380       N  0.07889008  0.36334248  0.63314444     0.03000
C1381       C  0.13985245  0.25531855  0.57979786    -0.04900
H1382       H  0.07766580  0.23491218  0.65844880     0.08500
C1383       C  0.13450806  0.28878266  0.71485924    -0.05200
Co1384     Co  0.09112936  0.31542602  0.60234458     0.74200
N1385       N  0.08748389  0.26930800  0.63652003    -0.24400
Co1386     Co  0.12738763  0.27133957  0.63675244     0.74100
C1387       C  0.11841262  0.26591937  0.71675856     0.44200
N1388       N  0.13609930  0.34848313  0.68859028     0.02600
N1389       N  0.12671607  0.27293433  0.67684785     0.02700
N1390       N  0.11513868  0.28460727  0.55803556    -0.45200
H1391       H  0.03092013  0.33027678  0.61099580     0.08500
N1392       N  0.07347074  0.28634027  0.62346870     0.03000
N1393       N  0.16721709  0.27422154  0.63681602     0.02800
C1394       C  0.20746903  0.26710722  0.63009638     0.44400
N1395       N  0.12174378  0.36642662  0.67675530    -0.23800
C1396       C  0.10758070  0.34592870  0.55580797    -0.04800
N1397       N  0.05953548  0.37883297  0.64160932    -0.44900
N1398       N  0.18357842  0.25806455  0.62528758    -0.45200
C1399       C  0.12068516  0.36946573  0.54950537     0.44100
N1400       N  0.11368998  0.28805551  0.58344042     0.03000
N1401       N  0.16390417  0.36764718  0.63556985    -0.23900
N1402       N  0.06932130  0.34299985  0.62087420    -0.24400
N1403       N  0.17590124  0.34953292  0.64956815     0.02700
H1404       H  0.18018957  0.39985955  0.61353325     0.08500
H1405       H  0.21953056  0.30171417  0.65534769     0.08600
N1406       N  0.12768331  0.27107262  0.59659554    -0.24400
N1407       N  0.13826038  0.29188981  0.68929388    -0.24000
N1408       N  0.12045736  0.36451898  0.59161990     0.03000
C1409       C  0.04587657  0.26026806  0.63960884     0.44400
C1410       C  0.11044499  0.38078970  0.69605914    -0.05300
N1411       N  0.17894416  0.29293411  0.64944780    -0.24000
H1412       H  0.14199684  0.30099149  0.73009646     0.08600
N1413       N  0.04834848  0.28127046  0.62421694    -0.45200
H1414       H  0.09741621  0.39707827  0.69317130     0.08500
C1415       C  0.20811964  0.37191699  0.63591232     0.44200
C1416       C  0.04347289  0.34400901  0.62052194    -0.04800
Co1417     Co  0.12126369  0.36704479  0.63421455     0.73800
N1418       N  0.13562782  0.34970767  0.71422454    -0.45000
C1419       C  0.13189338  0.26479023  0.55436116     0.44500
N1420       N  0.12842963  0.38051404  0.57253625    -0.44900
Co1421     Co  0.15746208  0.32076437  0.66938157     0.73900
C1422       C  0.20470700  0.28981561  0.64667040    -0.05300
C1423       C  0.07169129  0.25186466  0.64735611    -0.04800
N1424       N  0.10838849  0.34430406  0.58159218    -0.24400
N1425       N  0.11484427  0.25658498  0.69265953    -0.45100
H1426       H  0.15208813  0.23881763  0.58480931     0.08500
C1427       C  0.18313674  0.38301910  0.62576630    -0.05300
Cl1428     Cl  0.12431476  0.31918785  0.63564565    -0.48300
C1429       C  0.12000220  0.36935014  0.72101940     0.44300
H1430       H  0.09821301  0.33231114  0.54299666     0.08500
N1431       N  0.20141578  0.35148033  0.65023923    -0.45000
C1432       C  0.11703451  0.49177939  0.05229880     0.44100
N1433       N  0.12404251  0.48454982  0.09236069     0.03000
C1434       C  0.18467644  0.37654511  0.14507380    -0.04900
H1435       H  0.10214710  0.35844221  0.07702961     0.08500
C1436       C  0.04391651  0.41274450  0.15156254    -0.05200
Co1437     Co  0.15656948  0.43758584  0.10060348     0.74200
N1438       N  0.12308095  0.39099113  0.09371455    -0.24400
Co1439     Co  0.12227545  0.39090737  0.13640659     0.74100
C1440       C  0.03748261  0.38975094  0.13770328     0.44200
N1441       N  0.07146107  0.46990524  0.14646900     0.02600
N1442       N  0.07961916  0.39388571  0.13785269     0.02700
N1443       N  0.20172101  0.40821395  0.12019254    -0.45200
H1444       H  0.14225465  0.45712257  0.03950959     0.08500
N1445       N  0.13649993  0.40947649  0.08190288     0.03000
N1446       N  0.12170308  0.39390125  0.17905537     0.02800
C1447       C  0.12310418  0.38949052  0.22123455     0.44400
N1448       N  0.08427707  0.48704794  0.13255552    -0.23800
C1449       C  0.20236529  0.46910858  0.12257947    -0.04800
N1450       N  0.11245126  0.50094785  0.07630895    -0.44900
N1451       N  0.13070657  0.37833861  0.19810137    -0.45200
C1452       C  0.20450504  0.49208685  0.13856904     0.44100
N1453       N  0.17612898  0.40946329  0.12075056     0.03000
N1454       N  0.12505567  0.48761950  0.17229940    -0.23900
N1455       N  0.13652353  0.46577501  0.08020396    -0.24400
N1456       N  0.11227106  0.47038204  0.18610721     0.02700
H1457       H  0.14997903  0.51942335  0.18282424     0.08500
H1458       H  0.09937477  0.42626674  0.22791182     0.08600
N1459       N  0.16485455  0.39121814  0.13496960    -0.24400
N1460       N  0.06969285  0.41394295  0.15060115    -0.24000
N1461       N  0.16445880  0.48484230  0.13201339     0.03000
C1462       C  0.12334172  0.38734486  0.04939757     0.44400
C1463       C  0.06717655  0.50162910  0.11929506    -0.05300
N1464       N  0.10917799  0.41403609  0.18917390    -0.24000
H1465       H  0.03120370  0.42623963  0.16148942     0.08600
N1466       N  0.13711224  0.40789414  0.05634285    -0.45200
H1467       H  0.07175566  0.51740141  0.10615139     0.08500
C1468       C  0.13196192  0.49318676  0.21410617     0.44200
C1469       C  0.13362216  0.46899278  0.05455298    -0.04800
Co1470     Co  0.12441815  0.48674744  0.13228658     0.73800
N1471       N  0.04602029  0.47186255  0.14366928    -0.45000
C1472       C  0.20924206  0.38823858  0.13488899     0.44500
N1473       N  0.18042605  0.50132105  0.14315725    -0.44900
Co1474     Co  0.09059507  0.44215227  0.16823210     0.73900
C1475       C  0.10895769  0.41270505  0.21502024    -0.05300
C1476       C  0.11368639  0.37568773  0.07427679    -0.04800
N1477       N  0.17675363  0.46591320  0.11989274    -0.24400
N1478       N  0.06043259  0.37843267  0.12952605    -0.45100
H1479       H  0.18237202  0.35985054  0.15761889     0.08500
C1480       C  0.13791746  0.50320960  0.18841363    -0.05300
Cl1481     Cl  0.12345800  0.43882556  0.13438973    -0.48300
C1482       C  0.04207192  0.49087227  0.12622272     0.44300
H1483       H  0.21750478  0.45709105  0.11411841     0.08500
N1484       N  0.11537664  0.47337212  0.21140912    -0.45000
C1485       C  0.46048396  0.37912153  0.14788395     0.44100
N1486       N  0.41832210  0.38043248  0.15221841     0.03000
C1487       C  0.35950523  0.43005856  0.26282485    -0.04900
H1488       H  0.42383088  0.34913150  0.27733817     0.08500
C1489       C  0.36340226  0.29718473  0.22428243    -0.05200
Co1490     Co  0.40705073  0.41028982  0.20102678     0.74200
N1491       N  0.41237342  0.37394396  0.24539416    -0.24400
Co1492     Co  0.37239604  0.37415466  0.24471564     0.74100
C1493       C  0.38057610  0.29390982  0.24625148     0.44200
N1494       N  0.36020015  0.32555923  0.16635163     0.02600
N1495       N  0.37271888  0.33425694  0.24129121     0.02700
N1496       N  0.38260827  0.45337663  0.23359987    -0.45200
H1497       H  0.46687469  0.40185979  0.18503416     0.08500
N1498       N  0.42564439  0.38795164  0.22868232     0.03000
N1499       N  0.33246077  0.37485087  0.24287063     0.02800
C1500       C  0.29262256  0.38362028  0.24982220     0.44400
N1501       N  0.37468417  0.33734167  0.14864105    -0.23800
C1502       C  0.38922530  0.45776208  0.17202881    -0.04800
N1503       N  0.43748220  0.37186251  0.13654279    -0.44900
N1504       N  0.31667569  0.38682027  0.25923854    -0.45200
C1505       C  0.37570476  0.46431491  0.14861781     0.44100
N1506       N  0.38512850  0.42810683  0.22962236     0.03000
N1507       N  0.33296536  0.37930306  0.14928894    -0.23900
N1508       N  0.42824489  0.39253875  0.17251150    -0.24400
N1509       N  0.32126900  0.36533374  0.16748364     0.02700
H1510       H  0.31601943  0.40178907  0.11754127     0.08500
H1511       H  0.27926658  0.36015750  0.21456460     0.08600
N1512       N  0.37204770  0.41412603  0.24653764    -0.24400
N1513       N  0.36004330  0.32290125  0.22238727    -0.24000
N1514       N  0.37666003  0.42221724  0.15280383     0.03000
C1515       C  0.45444655  0.36921980  0.25182242     0.44400
C1516       C  0.38515057  0.31796942  0.13372516    -0.05300
N1517       N  0.32006924  0.36350187  0.22377674    -0.24000
H1518       H  0.35491687  0.28265151  0.21189192     0.08600
N1519       N  0.45099778  0.38622810  0.23225911    -0.45200
H1520       H  0.39799142  0.32074163  0.11733292     0.08500
C1521       C  0.28857766  0.37969967  0.14596270     0.44200
C1522       C  0.45408311  0.39267490  0.17128256    -0.04800
Co1523     Co  0.37572237  0.37985718  0.14917201     0.73800
N1524       N  0.35968666  0.30002958  0.16445922    -0.45000
C1525       C  0.36604580  0.45586231  0.25371283     0.44500
N1526       N  0.36825611  0.44146160  0.13720372    -0.44900
Co1527     Co  0.34022163  0.34424553  0.19498561     0.73900
C1528       C  0.29451008  0.36750722  0.22684185    -0.05300
C1529       C  0.42898193  0.36150306  0.26109500    -0.04800
N1530       N  0.38886638  0.43191479  0.17314163    -0.24400
N1531       N  0.38498479  0.31749022  0.25645753    -0.45100
H1532       H  0.34749624  0.42427693  0.27912703     0.08500
C1533       C  0.31339937  0.38952691  0.13439938    -0.05300
Cl1534     Cl  0.37388625  0.37719473  0.19695619    -0.48300
C1535       C  0.37476219  0.29313225  0.14458760     0.44300
H1536       H  0.39867886  0.47039912  0.18574726     0.08500
N1537       N  0.29571472  0.36500964  0.16602763    -0.45000
C1538       C  0.70625557  0.63564024  0.49780312     0.44100
N1539       N  0.66611980  0.62776302  0.49241174     0.03000
C1540       C  0.61281157  0.56697275  0.38593634    -0.04900
H1541       H  0.68045731  0.64996040  0.36632892     0.08500
C1542       C  0.60516051  0.70775974  0.42077957    -0.05200
Co1543     Co  0.65737103  0.59511500  0.44600794     0.74200
N1544       N  0.66375364  0.62858844  0.39889443    -0.24400
Co1545     Co  0.62088430  0.62952866  0.39959210     0.74100
C1546       C  0.61871816  0.71406553  0.39740959     0.44200
N1547       N  0.61121593  0.68008893  0.47856169     0.02600
N1548       N  0.61914699  0.67205157  0.40229881     0.02700
N1549       N  0.63786780  0.55004462  0.41765284    -0.45200
H1550       H  0.71846694  0.61063513  0.46306364     0.08500
N1551       N  0.67566927  0.61480929  0.41716705     0.03000
N1552       N  0.57816307  0.63050290  0.40312536     0.02800
C1553       C  0.53598384  0.63076226  0.39851639     0.44400
N1554       N  0.62529683  0.66709661  0.49555469    -0.23800
C1555       C  0.63615244  0.54921999  0.47830051    -0.04800
N1556       N  0.68245474  0.63981724  0.50793952    -0.44900
N1557       N  0.55901582  0.62288911  0.38722026    -0.45200
C1558       C  0.62016119  0.54713042  0.50134837     0.44100
N1559       N  0.63688750  0.57561395  0.41869091     0.03000
N1560       N  0.58593475  0.62611742  0.49682157    -0.23900
N1561       N  0.67798754  0.61542507  0.47336927    -0.24400
N1562       N  0.57199937  0.63909995  0.47968886     0.02700
H1563       H  0.57548831  0.60013108  0.52819379     0.08500
H1564       H  0.52966070  0.65375122  0.43563134     0.08600
N1565       N  0.62255116  0.58686127  0.40041239    -0.24400
N1566       N  0.60649720  0.68200110  0.42242670    -0.24000
N1567       N  0.62685268  0.58709032  0.49404127     0.03000
C1568       C  0.70825724  0.62787442  0.39468770     0.44400
C1569       C  0.63828721  0.68398680  0.51020881    -0.05300
N1570       N  0.56819175  0.64272125  0.42348549    -0.24000
H1571       H  0.59527883  0.72049949  0.43426797     0.08600
N1572       N  0.70120173  0.61385619  0.41519574    -0.45200
H1573       H  0.65139569  0.67918301  0.52594314     0.08500
C1574       C  0.54416564  0.61840551  0.50199820     0.44200
C1575       C  0.70361471  0.61890738  0.47545299    -0.04800
Co1576     Co  0.62607248  0.62705272  0.49545089     0.73800
N1577       N  0.61360482  0.70554609  0.48074836    -0.45000
C1578       C  0.62332748  0.54246604  0.39783865     0.44500
N1579       N  0.61558219  0.57110331  0.51060325    -0.44900
Co1580     Co  0.58937245  0.66103602  0.45116789     0.73900
C1581       C  0.54235450  0.64381125  0.42213258    -0.05300
C1582       C  0.68323795  0.63805553  0.38342695    -0.04800
N1583       N  0.63883408  0.57486360  0.47501308    -0.24400
N1584       N  0.62714007  0.69115504  0.38641384    -0.45100
H1585       H  0.60043775  0.56920059  0.36914520     0.08500
C1586       C  0.56987114  0.61266052  0.51219171    -0.05300
Cl1587     Cl  0.62337425  0.62820271  0.44748716    -0.48300
C1588       C  0.63095566  0.70921812  0.49977765     0.44300
H1589       H  0.64422036  0.53411440  0.46608633     0.08500
N1590       N  0.54677286  0.63548343  0.48244093    -0.45000
C1591       C  0.60678245  0.29174163  0.38578088     0.44100
N1592       N  0.60426589  0.33408572  0.38711086     0.03000
C1593       C  0.50047302  0.39957885  0.44330730    -0.04900
H1594       H  0.47657257  0.33884360  0.36224319     0.08500
C1595       C  0.53109343  0.39291341  0.30735483    -0.05200
Co1596     Co  0.55718738  0.34768537  0.41880578     0.74200
N1597       N  0.51039004  0.34690264  0.38555397    -0.24400
Co1598     Co  0.51410052  0.38660320  0.38586432     0.74100
C1599       C  0.50750083  0.37789781  0.30615903     0.44200
N1600       N  0.59112186  0.39260277  0.33212771     0.02600
N1601       N  0.51500462  0.38653634  0.34572601     0.02700
N1602       N  0.52888034  0.37311203  0.46411799    -0.45200
H1603       H  0.56953648  0.28700255  0.40909855     0.08500
N1604       N  0.52717007  0.33188763  0.39781733     0.03000
N1605       N  0.51905264  0.42609942  0.38618813     0.02800
C1606       C  0.51442045  0.46645924  0.39399675     0.44400
N1607       N  0.60879062  0.37773684  0.34373181    -0.23800
C1608       C  0.58868420  0.36217452  0.46514572    -0.04800
N1609       N  0.61915968  0.31426643  0.37861520    -0.44900
N1610       N  0.50432720  0.44297099  0.39879167    -0.45200
C1611       C  0.61243335  0.37492415  0.47121882     0.44100
N1612       N  0.53114763  0.37116441  0.43859673     0.03000
N1613       N  0.61121813  0.41912062  0.38580311    -0.23900
N1614       N  0.58356619  0.32507083  0.39938240    -0.24400
N1615       N  0.59382668  0.43169192  0.37147326     0.02700
H1616       H  0.64231950  0.43462814  0.40969600     0.08500
H1617       H  0.54846788  0.47735922  0.36730026     0.08600
N1618       N  0.51467543  0.38623888  0.42600501    -0.24400
N1619       N  0.53443825  0.39695875  0.33280941    -0.24000
N1620       N  0.60724556  0.37507463  0.42912679     0.03000
C1621       C  0.50133069  0.30579095  0.37960394     0.44400
C1622       C  0.62320798  0.36684314  0.32417936    -0.05300
N1623       N  0.53783995  0.43711495  0.37287005    -0.24000
H1624       H  0.54372249  0.39926685  0.29185121     0.08600
N1625       N  0.52218082  0.30689804  0.39516072    -0.45200
H1626       H  0.63945733  0.35371936  0.32684619     0.08500
C1627       C  0.61568740  0.46336532  0.38663970     0.44200
C1628       C  0.58359113  0.29916838  0.39942040    -0.04800
Co1629     Co  0.60940689  0.37646465  0.38647104     0.73800
N1630       N  0.59263078  0.39287124  0.30644870    -0.45000
C1631       C  0.51048511  0.39128883  0.46839565     0.44500
N1632       N  0.62342107  0.38270945  0.44805344    -0.44900
Co1633     Co  0.56438257  0.41468446  0.35207227     0.73900
C1634       C  0.53613998  0.46293011  0.37618928    -0.05300
C1635       C  0.49292324  0.33205897  0.37365512    -0.04800
N1636       N  0.58690742  0.36327274  0.43936206    -0.24400
N1637       N  0.49813531  0.37506406  0.33037687    -0.45100
H1638       H  0.48489106  0.41312861  0.43888250     0.08500
C1639       C  0.62623539  0.43800387  0.39664907    -0.05300
Cl1640     Cl  0.56157385  0.38128771  0.38578068    -0.48300
C1641       C  0.61217073  0.37718715  0.29929671     0.44300
H1642       H  0.57489492  0.35313230  0.47810912     0.08500
N1643       N  0.59594947  0.45716075  0.37143025    -0.45000
C1644       C  0.25831985  0.04710983  0.63828882     0.44100
N1645       N  0.26637198  0.08711879  0.63221406     0.03000
C1646       C  0.37591714  0.13846062  0.57404637    -0.04900
H1647       H  0.39184777  0.06947425  0.65644491     0.08500
C1648       C  0.33908381  0.14124590  0.71473520    -0.05200
Co1649     Co  0.31362937  0.09523186  0.60027638     0.74200
N1650       N  0.36015339  0.08678617  0.63423461    -0.24400
Co1651     Co  0.36051884  0.12930275  0.63581851     0.74100
C1652       C  0.36238280  0.12712770  0.72059120     0.44200
N1653       N  0.28156777  0.13845573  0.68655465     0.02600
N1654       N  0.35787253  0.12935744  0.67846424     0.02700
N1655       N  0.34402526  0.11506938  0.55576645    -0.45200
H1656       H  0.29318009  0.03396404  0.61346845     0.08500
N1657       N  0.34182677  0.07546646  0.62029816     0.03000
N1658       N  0.35740929  0.17201078  0.63732650     0.02800
C1659       C  0.36123472  0.21426858  0.63641365     0.44400
N1660       N  0.26416828  0.12576862  0.67305442    -0.23800
C1661       C  0.28168323  0.11939602  0.55478494    -0.04800
N1662       N  0.24958565  0.07125782  0.64323270    -0.44900
N1663       N  0.37245573  0.19128255  0.62824149    -0.45200
C1664       C  0.25882315  0.13609569  0.55320826     0.44100
N1665       N  0.34203984  0.11543703  0.58135170     0.03000
N1666       N  0.26411759  0.16709132  0.63370524    -0.23900
N1667       N  0.28509902  0.07479891  0.61976609    -0.24400
N1668       N  0.28128865  0.17988828  0.64739602     0.02700
H1669       H  0.23240323  0.17954841  0.60910403     0.08500
H1670       H  0.32497846  0.22038838  0.66089820     0.08600
N1671       N  0.36038262  0.12881231  0.59326844    -0.24400
N1672       N  0.33773976  0.14162311  0.68889478    -0.24000
N1673       N  0.26668030  0.12814568  0.59302746     0.03000
C1674       C  0.36342149  0.04251367  0.63429953     0.44400
C1675       C  0.24856544  0.11308183  0.68952620    -0.05300
N1676       N  0.33750969  0.18184725  0.65044915    -0.24000
H1677       H  0.32552945  0.15051155  0.72787980     0.08600
N1678       N  0.34320845  0.04985667  0.61986408    -0.45200
H1679       H  0.23210801  0.10130783  0.68426418     0.08500
C1680       C  0.25861540  0.20936286  0.62903758     0.44200
C1681       C  0.28141477  0.04916413  0.62218512    -0.04800
Co1682     Co  0.26472144  0.12703689  0.63297019     0.73800
N1683       N  0.27869285  0.13547945  0.71189357    -0.45000
C1684       C  0.36470703  0.12900972  0.54908761     0.44500
N1685       N  0.25013772  0.14018349  0.57749646    -0.44900
Co1686     Co  0.30949012  0.16051670  0.66843152     0.73900
C1687       C  0.33853296  0.20769685  0.65102103    -0.05300
C1688       C  0.37504562  0.06707798  0.64417531    -0.04800
N1689       N  0.28527388  0.11584554  0.58034198    -0.24400
N1690       N  0.37355827  0.12010597  0.69726096    -0.45100
H1691       H  0.39308975  0.15001205  0.57701503     0.08500
C1692       C  0.24860030  0.18418008  0.62153605    -0.05300
Cl1693     Cl  0.31264291  0.12801438  0.63431137    -0.48300
C1694       C  0.25878814  0.11910765  0.71510869     0.44300
H1695       H  0.29339610  0.11111743  0.53934576     0.08500
N1696       N  0.27834012  0.20536914  0.64562201    -0.45000
C1697       C  0.36321739  0.62630870  0.04823663     0.44100
N1698       N  0.35777117  0.62569206  0.09022622     0.03000
C1699       C  0.24651080  0.57375215  0.14519219    -0.04900
H1700       H  0.23236805  0.65560885  0.08246917     0.08500
C1701       C  0.28284802  0.70735751  0.14419355    -0.05200
Co1702     Co  0.30934428  0.59519519  0.10011977     0.74200
N1703       N  0.26426122  0.63077624  0.09434494    -0.24400
Co1704     Co  0.26401331  0.63012023  0.13442404     0.74100
C1705       C  0.26118882  0.71028989  0.12663495     0.44200
N1706       N  0.34120099  0.68029819  0.14852578     0.02600
N1707       N  0.26638176  0.67008537  0.13480363     0.02700
N1708       N  0.27690129  0.55134547  0.12227480    -0.45200
H1709       H  0.32664129  0.60314050  0.04104261     0.08500
N1710       N  0.28174026  0.61736860  0.08122613     0.03000
N1711       N  0.26523137  0.62911727  0.17455132     0.02800
C1712       C  0.25803787  0.62046878  0.21436893     0.44400
N1713       N  0.35958496  0.66898113  0.13435393    -0.23800
C1714       C  0.33872328  0.54807554  0.11857249    -0.04800
N1715       N  0.37389510  0.63399852  0.07142790    -0.44900
N1716       N  0.24888139  0.61699346  0.19017752    -0.45200
C1717       C  0.36174157  0.54182832  0.13287830     0.44100
N1718       N  0.28055801  0.57669751  0.12082138     0.03000
N1719       N  0.35933441  0.62685138  0.17536684    -0.23900
N1720       N  0.33791642  0.61333289  0.07985887    -0.24400
N1721       N  0.34051782  0.64014653  0.18704219     0.02700
H1722       H  0.39216167  0.60582956  0.19211635     0.08500
H1723       H  0.29275286  0.64432269  0.22810970     0.08600
N1724       N  0.26302121  0.59015239  0.13382675    -0.24400
N1725       N  0.28496429  0.68168054  0.14772961    -0.24000
N1726       N  0.35708650  0.58389169  0.13156469     0.03000
C1727       C  0.25940909  0.63662356  0.05222128     0.44400
C1728       C  0.37447093  0.68876937  0.12484507    -0.05300
N1729       N  0.28398421  0.64074721  0.18721911    -0.24000
H1730       H  0.29506668  0.72206827  0.15257922     0.08600
N1731       N  0.27917985  0.61983129  0.05579526    -0.45200
H1732       H  0.39142160  0.68641173  0.11264381     0.08500
C1733       C  0.36278006  0.62675478  0.21963469     0.44200
C1734       C  0.33984018  0.61276878  0.05409185    -0.04800
Co1735     Co  0.35995845  0.62635003  0.13279956     0.73800
N1736       N  0.34260553  0.70585852  0.14965555    -0.45000
C1737       C  0.25627208  0.54828019  0.13798380     0.44500
N1738       N  0.37259144  0.56483515  0.14063719    -0.44900
Co1739     Co  0.31263931  0.66076561  0.16779288     0.73900
C1740       C  0.28076071  0.63675279  0.21272560    -0.05300
C1741       C  0.24891556  0.64340774  0.07754676    -0.04800
N1742       N  0.33724604  0.57391485  0.11879661    -0.24400
N1743       N  0.25127484  0.68663774  0.12211300    -0.45100
H1744       H  0.22970746  0.57906004  0.15681144     0.08500
C1745       C  0.37471077  0.61728944  0.19482574    -0.05300
Cl1746     Cl  0.31198927  0.62804848  0.13378454    -0.48300
C1747       C  0.36277791  0.71337868  0.13535627     0.44300
H1748       H  0.32539401  0.53521418  0.10889694     0.08500
N1749       N  0.34199796  0.64060086  0.21262141    -0.45000
C1750       C  0.38630687  0.13209103  0.04872244     0.44100
N1751       N  0.39128159  0.13173791  0.09081037     0.03000
C1752       C  0.50317533  0.17897708  0.14760819    -0.04900
H1753       H  0.51508229  0.09826583  0.08169170     0.08500
C1754       C  0.46396692  0.04638970  0.14258475    -0.05200
Co1755     Co  0.44034343  0.16084155  0.10148364     0.74200
N1756       N  0.48434966  0.12412493  0.09443621    -0.24400
Co1757     Co  0.48463369  0.12340101  0.13446946     0.74100
C1758       C  0.48564208  0.04345936  0.12477842     0.44200
N1759       N  0.40604894  0.07535387  0.14821570     0.02600
N1760       N  0.48098129  0.08358451  0.13365476     0.02700
N1761       N  0.47322819  0.20291594  0.12584924    -0.45200
H1762       H  0.42320977  0.15500654  0.04213818     0.08500
N1763       N  0.46740877  0.13860473  0.08181204     0.03000
N1764       N  0.48383826  0.12291430  0.17454329     0.02800
C1765       C  0.49139535  0.13036355  0.21437043     0.44400
N1766       N  0.38785998  0.08755471  0.13456167    -0.23800
C1767       C  0.41202061  0.20814254  0.12036010    -0.04800
N1768       N  0.37534902  0.12392608  0.07176186    -0.44900
N1769       N  0.50058413  0.13422390  0.19019888    -0.45200
C1770       C  0.38873083  0.21473166  0.13409773     0.44100
N1771       N  0.46937142  0.17774119  0.12297549     0.03000
N1772       N  0.38980274  0.12884864  0.17605746    -0.23900
N1773       N  0.41137970  0.14412655  0.08073147    -0.24400
N1774       N  0.40810232  0.11450438  0.18734226     0.02700
H1775       H  0.35855269  0.15168770  0.19349560     0.08500
H1776       H  0.45576179  0.10767205  0.22807554     0.08600
N1777       N  0.48663845  0.16337514  0.13532310    -0.24400
N1778       N  0.46223388  0.07204113  0.14656663    -0.24000
N1779       N  0.39261527  0.17259468  0.13284822     0.03000
C1780       C  0.48883423  0.11922581  0.05213601     0.44400
C1781       C  0.37198415  0.06848615  0.12542725    -0.05300
N1782       N  0.46471067  0.11164708  0.18715389    -0.24000
H1783       H  0.45159075  0.03171129  0.15095359     0.08600
N1784       N  0.46981110  0.13675007  0.05630451    -0.45200
H1785       H  0.35479419  0.07164233  0.11382016     0.08500
C1786       C  0.38711331  0.12893943  0.22037762     0.44200
C1787       C  0.40970439  0.14535659  0.05495967    -0.04800
Co1788     Co  0.38882582  0.13019083  0.13348576     0.73800
N1789       N  0.40365502  0.04988646  0.14933880    -0.45000
C1790       C  0.49370895  0.20498360  0.14179329     0.44500
N1791       N  0.37712699  0.19188418  0.14146270    -0.44900
Co1792     Co  0.43526872  0.09331549  0.16748592     0.73900
C1793       C  0.46810727  0.11494155  0.21271148    -0.05300
C1794       C  0.49910036  0.11132645  0.07720977    -0.04800
N1795       N  0.41296621  0.18229932  0.12054785    -0.24400
N1796       N  0.49581632  0.06708758  0.12064114    -0.45100
H1797       H  0.51974315  0.17286051  0.15909723     0.08500
C1798       C  0.37528473  0.13912465  0.19583171    -0.05300
Cl1799     Cl  0.43670813  0.12697318  0.13422803    -0.48300
C1800       C  0.38288101  0.04336686  0.13562325     0.44300
H1801       H  0.42567310  0.22078167  0.11070722     0.08500
N1802       N  0.40699953  0.11400364  0.21295235    -0.45000
C1803       C  0.28894191  0.23912488  0.39138787     0.44100
N1804       N  0.32887562  0.23444480  0.38200381     0.03000
C1805       C  0.38593173  0.12768537  0.32438812    -0.04900
H1806       H  0.31736956  0.10977738  0.40865400     0.08500
C1807       C  0.39019179  0.16576010  0.46390087    -0.05200
Co1808     Co  0.33864258  0.18745998  0.35042950     0.74200
N1809       N  0.33314413  0.14152044  0.38555386    -0.24400
Co1810     Co  0.37580515  0.14258604  0.38628915     0.74100
C1811       C  0.37720110  0.14222137  0.47076855     0.44200
N1812       N  0.38342232  0.22301219  0.43437000     0.02600
N1813       N  0.37705050  0.14637280  0.42863145     0.02700
N1814       N  0.36000198  0.15812938  0.30621591    -0.45200
H1815       H  0.27699376  0.20409483  0.36691030     0.08500
N1816       N  0.32082449  0.15904828  0.37114288     0.03000
N1817       N  0.41820044  0.14637854  0.38702263     0.02800
C1818       C  0.46033353  0.14190582  0.38713215     0.44400
N1819       N  0.36914343  0.23954330  0.42097717    -0.23800
C1820       C  0.36019147  0.21839762  0.30368795    -0.04800
N1821       N  0.31248853  0.24958183  0.39477326    -0.44900
N1822       N  0.43755336  0.13019095  0.37994631    -0.45200
C1823       C  0.37605749  0.24128278  0.30097590     0.44100
N1824       N  0.36001762  0.15973397  0.33177675     0.03000
N1825       N  0.40838509  0.24034796  0.38021941    -0.23900
N1826       N  0.31730969  0.21519084  0.37007207    -0.24400
N1827       N  0.42289621  0.22385437  0.39343461     0.02700
H1828       H  0.41726835  0.27362608  0.35629395     0.08500
H1829       H  0.46606112  0.18010385  0.40836827     0.08600
N1830       N  0.37480342  0.14220294  0.34369502    -0.24400
N1831       N  0.38914341  0.16687706  0.43805907    -0.24000
N1832       N  0.36840266  0.23545235  0.34108480     0.03000
C1833       C  0.28894048  0.13671394  0.38568049     0.44400
C1834       C  0.35680776  0.25544049  0.43748458    -0.05300
N1835       N  0.42775978  0.16729061  0.39829614    -0.24000
H1836       H  0.39962384  0.17965060  0.47635232     0.08600
N1837       N  0.29534319  0.15672212  0.37065369    -0.45200
H1838       H  0.34418062  0.27156002  0.43222708     0.08500
C1839       C  0.44975769  0.24912657  0.37492096     0.44200
C1840       C  0.29169379  0.21693196  0.37435944    -0.04800
Co1841     Co  0.36859085  0.23808895  0.38100604     0.73800
N1842       N  0.38187909  0.22679537  0.45969982    -0.45000
C1843       C  0.37571934  0.13865846  0.29943455     0.44500
N1844       N  0.37992389  0.25141049  0.32466081    -0.44900
Co1845     Co  0.40594947  0.19532397  0.41605812     0.73900
C1846       C  0.45359288  0.16611433  0.39911650    -0.05300
C1847       C  0.31414177  0.12624138  0.39598342    -0.04800
N1848       N  0.35691985  0.21600972  0.32938709    -0.24400
N1849       N  0.36935267  0.13071739  0.44806023    -0.45100
H1850       H  0.39921809  0.11160268  0.32726305     0.08500
C1851       C  0.42368503  0.25724825  0.36796620    -0.05300
Cl1852     Cl  0.37232837  0.19034451  0.38347843    -0.48300
C1853       C  0.36481556  0.24639045  0.46300883     0.44300
H1854       H  0.35268950  0.20563928  0.28891825     0.08500
N1855       N  0.44797360  0.22883462  0.39137055    -0.45000
C1856       C  0.53729310  0.86419285  0.63402625     0.44100
N1857       N  0.57948708  0.86137176  0.63183555     0.03000
C1858       C  0.64234221  0.75605525  0.57588902    -0.04900
H1859       H  0.57983641  0.73467384  0.65730998     0.08500
C1860       C  0.63763735  0.78546956  0.71120797    -0.05200
Co1861     Co  0.59216058  0.81439645  0.59972302     0.74200
N1862       N  0.58952365  0.76781663  0.63335305    -0.24400
Co1863     Co  0.62954631  0.77027506  0.63283112     0.74100
C1864       C  0.62245592  0.76192025  0.71243237     0.44200
N1865       N  0.63717657  0.84630652  0.68643581     0.02600
N1866       N  0.62967856  0.77069232  0.67278809     0.02700
N1867       N  0.61685911  0.78493411  0.55450520    -0.45200
H1868       H  0.53181025  0.82787294  0.60975050     0.08500
N1869       N  0.57522500  0.78491149  0.62067814     0.03000
N1870       N  0.66928722  0.77409284  0.63233698     0.02800
C1871       C  0.70958724  0.76810770  0.62478886     0.44400
N1872       N  0.62263424  0.86441075  0.67506296    -0.23800
C1873       C  0.60783278  0.84575093  0.55375097    -0.04800
N1874       N  0.55996235  0.87601363  0.64137176    -0.44900
N1875       N  0.68582990  0.75868029  0.62010913    -0.45200
C1876       C  0.62075396  0.86941105  0.54774868     0.44100
N1877       N  0.61497219  0.78772330  0.57999674     0.03000
N1878       N  0.66433975  0.86735217  0.63366708    -0.23900
N1879       N  0.57013577  0.84124428  0.61906527    -0.24400
N1880       N  0.67665664  0.84909803  0.64717673     0.02700
H1881       H  0.67999961  0.90081049  0.61304638     0.08500
H1882       H  0.72123216  0.80220990  0.65092568     0.08600
N1883       N  0.62939514  0.77090474  0.59284959    -0.24400
N1884       N  0.64080397  0.78959464  0.68569012    -0.24000
N1885       N  0.62074950  0.86395912  0.58978207     0.03000
C1886       C  0.54784813  0.76032861  0.63920380     0.44400
C1887       C  0.61155250  0.87844576  0.69473763    -0.05300
N1888       N  0.68077985  0.79269888  0.64533881    -0.24000
H1889       H  0.64489889  0.79744471  0.72674412     0.08600
N1890       N  0.55003796  0.78083680  0.62320107    -0.45200
H1891       H  0.59854376  0.89481786  0.69225438     0.08500
C1892       C  0.70840488  0.87272613  0.63468179     0.44200
C1893       C  0.54427552  0.84161482  0.61936952    -0.04800
Co1894     Co  0.62178044  0.86583280  0.63250289     0.73800
N1895       N  0.63700044  0.84711660  0.71210958    -0.45000
C1896       C  0.63447110  0.76585320  0.55064399     0.44500
N1897       N  0.62857708  0.88022272  0.57086922    -0.44900
Co1898     Co  0.65896820  0.81947503  0.66632517     0.73900
C1899       C  0.70655425  0.79025331  0.64208752    -0.05300
C1900       C  0.57381662  0.75112577  0.64553441    -0.04800
N1901       N  0.60879233  0.84380940  0.57948421    -0.24400
N1902       N  0.61864419  0.75339663  0.68813409    -0.45100
H1903       H  0.65520545  0.73998005  0.58066005     0.08500
C1904       C  0.68326416  0.88354143  0.62458727    -0.05300
Cl1905     Cl  0.62560884  0.81802416  0.63284024    -0.48300
C1906       C  0.62138454  0.86661415  0.71943449     0.44300
H1907       H  0.59855265  0.83221001  0.54080038     0.08500
N1908       N  0.70207428  0.85167200  0.64820945    -0.45000
C1909       C  0.13497703  0.29254747  0.38329626     0.44100
N1910       N  0.14063249  0.33443208  0.38315099     0.03000
C1911       C  0.25258947  0.38827931  0.33256816    -0.04900
H1912       H  0.26399837  0.32307057  0.41561511     0.08500
C1913       C  0.21622893  0.38574014  0.46625214    -0.05200
Co1914     Co  0.18978537  0.34336968  0.35323921     0.74200
N1915       N  0.23388800  0.33603815  0.38933740    -0.24400
Co1916     Co  0.23500104  0.37601737  0.38883123     0.74100
C1917       C  0.23834500  0.36819595  0.46878612     0.44200
N1918       N  0.15714334  0.39162106  0.43843499     0.02600
N1919       N  0.23209911  0.37598302  0.42864383     0.02700
N1920       N  0.22207638  0.36647933  0.30993132    -0.45200
H1921       H  0.17178357  0.28493115  0.36025458     0.08500
N1922       N  0.21647078  0.32355672  0.37568677     0.03000
N1923       N  0.23466235  0.41609096  0.38843574     0.02800
C1924       C  0.24287138  0.45581010  0.38093049     0.44400
N1925       N  0.13844195  0.37859036  0.42670067    -0.23800
C1926       C  0.16171164  0.36224506  0.30577826    -0.04800
N1927       N  0.12426855  0.31583279  0.39123099    -0.44900
N1928       N  0.25168996  0.43145381  0.37698036    -0.45200
C1929       C  0.13877320  0.37665433  0.29914565     0.44100
N1930       N  0.21902199  0.36359341  0.33526156     0.03000
N1931       N  0.14067460  0.41959008  0.38491704    -0.23900
N1932       N  0.16061087  0.32377771  0.37082182    -0.24400
N1933       N  0.15934323  0.43057755  0.39865268     0.02700
H1934       H  0.10880302  0.43744176  0.36339876     0.08500
H1935       H  0.20787301  0.47009214  0.40469607     0.08600
N1936       N  0.23653342  0.37602423  0.34886995    -0.24400
N1937       N  0.21358769  0.38909931  0.44056109    -0.24000
N1938       N  0.14272641  0.37586914  0.34138387     0.03000
C1939       C  0.23670197  0.29386347  0.39634165     0.44400
C1940       C  0.12232237  0.37028188  0.44613111    -0.05300
N1941       N  0.21589286  0.42906381  0.40014309    -0.24000
H1942       H  0.20436244  0.39461800  0.48120649     0.08600
N1943       N  0.21788410  0.29809968  0.37880731    -0.45200
H1944       H  0.10467531  0.35940138  0.44338548     0.08500
C1945       C  0.13814665  0.46392075  0.38488972     0.44200
C1946       C  0.15852850  0.29810090  0.36992605    -0.04800
Co1947     Co  0.13905586  0.37710103  0.38401854     0.73800
N1948       N  0.15489405  0.39302081  0.46394217    -0.45000
C1949       C  0.24232942  0.38244483  0.30705931     0.44500
N1950       N  0.12746301  0.38469651  0.32206714    -0.44900
Co1951     Co  0.18647491  0.41021347  0.41954574     0.73900
C1952       C  0.21972014  0.45450660  0.39682749    -0.05300
C1953       C  0.24798336  0.31875663  0.40282013    -0.04800
N1954       N  0.16272066  0.36277230  0.33164610    -0.24400
N1955       N  0.24766636  0.36354505  0.44484090    -0.45100
H1956       H  0.26897496  0.40011252  0.33793100     0.08500
C1957       C  0.12598923  0.43955323  0.37518823    -0.05300
Cl1958     Cl  0.18700413  0.37672913  0.38638214    -0.48300
C1959       C  0.13364291  0.38021148  0.47094345     0.44300
H1960       H  0.17508235  0.35200943  0.29316809     0.08500
N1961       N  0.15838293  0.45621642  0.39913100    -0.45000
C1962       C  0.54056376  0.63320140  0.77086285     0.44100
N1963       N  0.58070281  0.62569098  0.77717506     0.03000
C1964       C  0.63528665  0.56831269  0.88556635    -0.04900
H1965       H  0.56536304  0.65176266  0.90150658     0.08500
C1966       C  0.63720219  0.70842765  0.84799024    -0.05200
Co1967     Co  0.59002651  0.59398383  0.82436805     0.74200
N1968       N  0.58238502  0.62856116  0.87038176    -0.24400
Co1969     Co  0.62493952  0.62994583  0.87014736     0.74100
C1970       C  0.62380230  0.71447865  0.87164397     0.44200
N1971       N  0.63286475  0.67961172  0.79032399     0.02600
N1972       N  0.62518618  0.67242711  0.86700843     0.02700
N1973       N  0.61107255  0.54987716  0.85434500    -0.45200
H1974       H  0.52828189  0.60830563  0.80581336     0.08500
N1975       N  0.57084332  0.61412055  0.85260219     0.03000
N1976       N  0.66736775  0.63112970  0.86661175     0.02800
C1977       C  0.70951608  0.62967635  0.87041831     0.44400
N1978       N  0.61963877  0.66595334  0.77342885    -0.23800
C1979       C  0.61410316  0.54810648  0.79357308    -0.04800
N1980       N  0.56441461  0.63758066  0.76126322    -0.44900
N1981       N  0.68660087  0.62210846  0.88184686    -0.45200
C1982       C  0.63060574  0.54592688  0.77082821     0.44100
N1983       N  0.61096895  0.57543116  0.85243476     0.03000
N1984       N  0.66041708  0.62627259  0.77321253    -0.23900
N1985       N  0.56888296  0.61332831  0.79616368    -0.24400
N1986       N  0.67392296  0.63989642  0.78991826     0.02700
H1987       H  0.67135925  0.60125411  0.74134905     0.08500
H1988       H  0.71565586  0.65326136  0.83351581     0.08600
N1989       N  0.62475222  0.58745889  0.87039307    -0.24400
N1990       N  0.63715159  0.68258872  0.84662939    -0.24000
N1991       N  0.62171229  0.58589522  0.77697676     0.03000
C1992       C  0.53813833  0.62861238  0.87410657     0.44400
C1993       C  0.60717431  0.68224298  0.75736372    -0.05300
N1994       N  0.67709853  0.64369501  0.84637546    -0.24000
H1995       H  0.64637121  0.72139493  0.83426846     0.08600
N1996       N  0.54528876  0.61361701  0.85428450    -0.45200
H1997       H  0.59533332  0.67676940  0.74096460     0.08500
C1998       C  0.70222552  0.62072833  0.76655249     0.44200
C1999       C  0.54317610  0.61650885  0.79347450    -0.04800
Co2000     Co  0.62055441  0.62591718  0.77455702     0.73800
N2001       N  0.63050924  0.70492038  0.78656399    -0.45000
C2002       C  0.62583429  0.54330188  0.87453198     0.44500
N2003       N  0.63398225  0.56990239  0.76100122    -0.44900
Co2004     Co  0.65538722  0.66159602  0.81826607     0.73900
C2005       C  0.70296060  0.64387368  0.84733246    -0.05300
C2006       C  0.56281654  0.63894016  0.88513745    -0.04800
N2007       N  0.60998925  0.57368666  0.79611746    -0.24400
N2008       N  0.61666407  0.69134199  0.88290869    -0.45100
H2009       H  0.64753608  0.57135341  0.90228211     0.08500
C2010       C  0.67672019  0.61367450  0.75734710    -0.05300
Cl2011     Cl  0.62273401  0.62792021  0.82236896    -0.48300
C2012       C  0.61397121  0.70793574  0.76661474     0.44300
H2013       H  0.60651993  0.53300311  0.80602799     0.08500
N2014       N  0.69928095  0.63764656  0.78622548    -0.45000
C2015       C  0.28658628  0.38095497  0.62161957     0.44100
N2016       N  0.32878321  0.38133894  0.61778284     0.03000
C2017       C  0.38992057  0.43655343  0.51158641    -0.04900
H2018       H  0.32757853  0.35350758  0.49220568     0.08500
C2019       C  0.38671346  0.30106830  0.54122948    -0.05200
Co2020     Co  0.34061622  0.41279629  0.57026713     0.74200
N2021       N  0.33764336  0.37883282  0.52401763    -0.24400
Co2022     Co  0.37768370  0.37948838  0.52578452     0.74100
C2023       C  0.37152663  0.29987039  0.51760069     0.44200
N2024       N  0.38683381  0.32609791  0.60212848     0.02600
N2025       N  0.37824658  0.33951008  0.52631604     0.02700
N2026       N  0.36489175  0.45772099  0.54104691    -0.45200
H2027       H  0.28076988  0.40462175  0.58478774     0.08500
N2028       N  0.32352925  0.39149164  0.54125871     0.03000
N2029       N  0.41755995  0.37991863  0.52918161     0.02800
C2030       C  0.45772319  0.38793339  0.52379747     0.44400
N2031       N  0.37271172  0.33753468  0.62050678    -0.23800
C2032       C  0.35572258  0.45918554  0.60151031    -0.04800
N2033       N  0.30940887  0.37314094  0.63325551    -0.44900
N2034       N  0.43394100  0.39251230  0.51400871    -0.45200
C2035       C  0.36882650  0.46525504  0.62516170     0.44100
N2036       N  0.36280345  0.43223743  0.54329627     0.03000
N2037       N  0.41402910  0.37903513  0.62227057    -0.23900
N2038       N  0.31913185  0.39388201  0.59746308    -0.24400
N2039       N  0.42605367  0.36512215  0.60415578     0.02700
H2040       H  0.43039091  0.40075666  0.65452430     0.08500
H2041       H  0.46976528  0.36171234  0.55790461     0.08600
N2042       N  0.37705056  0.41947967  0.52626888    -0.24400
N2043       N  0.38956820  0.32657547  0.54530184    -0.24000
N2044       N  0.36970934  0.42313714  0.61954253     0.03000
C2045       C  0.29601425  0.37137264  0.51841619     0.44400
C2046       C  0.36274575  0.31781847  0.63523801    -0.05300
N2047       N  0.42926150  0.36684119  0.54784965    -0.24000
H2048       H  0.39432643  0.28549005  0.55322677     0.08600
N2049       N  0.29832759  0.38795529  0.53830523    -0.45200
H2050       H  0.35049749  0.32029132  0.65214113     0.08500
C2051       C  0.45834298  0.37848449  0.62651044     0.44200
C2052       C  0.29329587  0.39458842  0.59836344    -0.04800
Co2053     Co  0.37132696  0.38029449  0.62159344     0.73800
N2054       N  0.38741329  0.30044719  0.60339413    -0.45000
C2055       C  0.38231341  0.46164599  0.52199902     0.44500
N2056       N  0.37727410  0.44205476  0.63578900    -0.44900
Co2057     Co  0.40797541  0.34597402  0.57491287     0.73900
C2058       C  0.45495819  0.37034708  0.54571947    -0.05300
C2059       C  0.32178623  0.36576433  0.50827669    -0.04800
N2060       N  0.35730214  0.43342193  0.59945296    -0.24400
N2061       N  0.36743596  0.32419492  0.50898612    -0.45100
H2062       H  0.40290624  0.43195301  0.49563020     0.08500
C2063       C  0.43331736  0.38864892  0.63763746    -0.05300
Cl2064     Cl  0.37439110  0.37962052  0.57371546    -0.48300
C2065       C  0.37281892  0.29309304  0.62352450     0.44300
H2066       H  0.34594728  0.47209751  0.58810011     0.08500
N2067       N  0.45157313  0.36430038  0.60613030    -0.45000
C2068       C  0.49046448  0.70925175  0.63970856     0.44100
N2069       N  0.48172690  0.66946282  0.63322030     0.03000
C2070       C  0.37273904  0.61979760  0.57386811    -0.04900
H2071       H  0.35482376  0.68689829  0.65605805     0.08500
C2072       C  0.40874016  0.61502188  0.71504991    -0.05200
Co2073     Co  0.43452226  0.66261179  0.60129202     0.74200
N2074       N  0.38772428  0.67036382  0.63503725    -0.24400
Co2075     Co  0.38712775  0.62798903  0.63626902     0.74100
C2076       C  0.38613979  0.63030514  0.72106966     0.44200
N2077       N  0.46613974  0.61627838  0.68633959     0.02600
N2078       N  0.39007607  0.62746350  0.67891281     0.02700
N2079       N  0.40471588  0.64392036  0.55650032    -0.45200
H2080       H  0.45584151  0.72335831  0.61511420     0.08500
N2081       N  0.40638384  0.68203053  0.62168709     0.03000
N2082       N  0.38920040  0.58522479  0.63771504     0.02800
C2083       C  0.38362677  0.54314717  0.63823320     0.44400
N2084       N  0.48346025  0.62939903  0.67297256    -0.23800
C2085       C  0.46556230  0.63842314  0.55516570    -0.04800
N2086       N  0.49875232  0.68486241  0.64434585    -0.44900
N2087       N  0.37301539  0.56640591  0.62991673    -0.45200
C2088       C  0.48773697  0.62090325  0.55327945     0.44100
N2089       N  0.40611974  0.64304797  0.58208777     0.03000
N2090       N  0.48270072  0.58939307  0.63260533    -0.23900
N2091       N  0.46321837  0.68231285  0.62101352    -0.24400
N2092       N  0.46525492  0.57632066  0.64586794     0.02700
H2093       H  0.51402468  0.57745325  0.60719059     0.08500
H2094       H  0.42038847  0.53613254  0.66156497     0.08600
N2095       N  0.38769843  0.62921667  0.59356707    -0.24400
N2096       N  0.40983375  0.61443641  0.68915965    -0.24000
N2097       N  0.48105694  0.62947462  0.59312216     0.03000
C2098       C  0.38373031  0.71443095  0.63507161     0.44400
C2099       C  0.49898794  0.64181186  0.68951321    -0.05300
N2100       N  0.40911446  0.57485944  0.65031126    -0.24000
H2101       H  0.42215374  0.60550109  0.72812637     0.08600
N2102       N  0.40461569  0.70762380  0.62124032    -0.45200
H2103       H  0.51526628  0.65396118  0.68435873     0.08500
C2104       C  0.48708454  0.54732927  0.62582053     0.44200
C2105       C  0.46733092  0.70784578  0.62367492    -0.04800
Co2106     Co  0.48288086  0.62944037  0.63299786     0.73800
N2107       N  0.46899811  0.61869407  0.71171919    -0.45000
C2108       C  0.38445112  0.62987906  0.54916994     0.44500
N2109       N  0.49686371  0.61676855  0.57734433    -0.44900
Co2110     Co  0.43765872  0.59534723  0.66802232     0.73900
C2111       C  0.40714180  0.54909490  0.65159463    -0.05300
C2112       C  0.37215656  0.68968683  0.64454140    -0.04800
N2113       N  0.46258787  0.64222100  0.58077251    -0.24400
N2114       N  0.37507272  0.63760277  0.69782180    -0.45100
H2115       H  0.35567689  0.60794080  0.57634123     0.08500
C2116       C  0.49772260  0.57260043  0.61952635    -0.05300
Cl2117     Cl  0.43498681  0.62887143  0.63462189    -0.48300
C2118       C  0.48876831  0.63517578  0.71496314     0.44300
H2119       H  0.45362396  0.64662114  0.53991171     0.08500
N2120       N  0.46754271  0.55091426  0.64282907    -0.45000
C2121       C  0.70928603  0.39009847  0.63207451     0.44100
N2122       N  0.66712445  0.39465470  0.63229603     0.03000
C2123       C  0.60662502  0.50335812  0.58049586    -0.04900
H2124       H  0.67198764  0.52102358  0.66006347     0.08500
C2125       C  0.61328301  0.46939312  0.71504066    -0.05200
Co2126     Co  0.65533724  0.44299236  0.60183353     0.74200
N2127       N  0.66050335  0.48846508  0.63641697    -0.24400
Co2128     Co  0.62043263  0.48761730  0.63706829     0.74100
C2129       C  0.62999815  0.49181864  0.71692434     0.44200
N2130       N  0.60972513  0.41032968  0.68810396     0.02600
N2131       N  0.62130083  0.48552440  0.67707399     0.02700
N2132       N  0.63025774  0.47359071  0.55826938    -0.45200
H2133       H  0.71512396  0.42715538  0.60885964     0.08500
N2134       N  0.67382156  0.47122426  0.62294575     0.03000
N2135       N  0.58043741  0.48571343  0.63756617     0.02800
C2136       C  0.54031455  0.49240967  0.63028096     0.44400
N2137       N  0.62363820  0.39194509  0.67645146    -0.23800
C2138       C  0.63825088  0.41327551  0.55524281    -0.04800
N2139       N  0.68647682  0.37880617  0.64016135    -0.44900
N2140       N  0.56419060  0.50174835  0.62567848    -0.45200
C2141       C  0.62504211  0.38979867  0.54904880     0.44100
N2142       N  0.63301963  0.47080094  0.58361988     0.03000
N2143       N  0.58183237  0.39220870  0.63534406    -0.23900
N2144       N  0.67679702  0.41492775  0.61981862    -0.24400
N2145       N  0.57023225  0.41052775  0.64938376     0.02700
H2146       H  0.56483632  0.36046316  0.61345381     0.08500
H2147       H  0.52790163  0.45774611  0.65536990     0.08600
N2148       N  0.61963416  0.48802924  0.59703278    -0.24400
N2149       N  0.60931772  0.46670768  0.68948386    -0.24000
N2150       N  0.62530097  0.39457626  0.59118543     0.03000
C2151       C  0.70258960  0.49475908  0.64045573     0.44400
C2152       C  0.63346098  0.37678659  0.69600761    -0.05300
N2153       N  0.56850424  0.46693894  0.65005427    -0.24000
H2154       H  0.60555762  0.45721628  0.73027505     0.08600
N2155       N  0.69919061  0.47464546  0.62430763    -0.45200
H2156       H  0.64552174  0.35972357  0.69340992     0.08500
C2157       C  0.53749899  0.38899182  0.63584146     0.44200
C2158       C  0.70259469  0.41358816  0.61877143    -0.04800
Co2159     Co  0.62450681  0.39174788  0.63381404     0.73800
N2160       N  0.60905133  0.40873052  0.71364669    -0.45000
C2161       C  0.61324083  0.49320767  0.55500036     0.44500
N2162       N  0.61734949  0.37866510  0.57217091    -0.44900
Co2163     Co  0.58933284  0.43859010  0.66937835     0.73900
C2164       C  0.54281075  0.46988308  0.64705400    -0.05300
C2165       C  0.67712205  0.50448863  0.64806426    -0.04800
N2166       N  0.63746748  0.41476214  0.58105962    -0.24400
N2167       N  0.63364564  0.50136208  0.69285480    -0.45100
H2168       H  0.59427230  0.51969855  0.58566267     0.08500
C2169       C  0.56225219  0.37734739  0.62564176    -0.05300
Cl2170     Cl  0.62243875  0.43967053  0.63555527    -0.48300
C2171       C  0.62338976  0.38837676  0.72075074     0.44300
H2172       H  0.64788466  0.42676249  0.54238761     0.08500
N2173       N  0.54467254  0.40913358  0.65018846    -0.45000
C2174       C  0.29541605  0.51144864  0.38177616     0.44100
N2175       N  0.33481346  0.51996464  0.39003955     0.03000
C2176       C  0.38290322  0.63159788  0.44478434    -0.04900
H2177       H  0.31393253  0.64512885  0.36176786     0.08500
C2178       C  0.38771358  0.59127289  0.30500019    -0.05200
Co2179     Co  0.34051790  0.56862031  0.41982209     0.74200
N2180       N  0.33154339  0.61378936  0.38431090    -0.24400
Co2181     Co  0.37399170  0.61506993  0.38297652     0.74100
C2182       C  0.37361484  0.61432792  0.29821161     0.44200
N2183       N  0.38624751  0.53421408  0.33560855     0.02600
N2184       N  0.37470785  0.61091180  0.34043445     0.02700
N2185       N  0.35897118  0.60018963  0.46340844    -0.45200
H2186       H  0.28032953  0.54685908  0.40451523     0.08500
N2187       N  0.32042252  0.59552768  0.39864159     0.03000
N2188       N  0.41654142  0.61326664  0.38158626     0.02800
C2189       C  0.45846597  0.61896446  0.38177210     0.44400
N2190       N  0.37419359  0.51700243  0.35010769    -0.23800
C2191       C  0.36450752  0.53973278  0.46704916    -0.04800
N2192       N  0.31986199  0.50283425  0.37851841    -0.44900
N2193       N  0.43513060  0.62936215  0.38997867    -0.45200
C2194       C  0.38209317  0.51781611  0.47021501     0.44100
N2195       N  0.35943940  0.59808017  0.43787632     0.03000
N2196       N  0.41476346  0.52040632  0.38962468    -0.23900
N2197       N  0.32154588  0.53888481  0.40113469    -0.24400
N2198       N  0.42704869  0.53737477  0.37503266     0.02700
H2199       H  0.42812675  0.49051349  0.41607242     0.08500
H2200       H  0.46607498  0.58224709  0.35853233     0.08600
N2201       N  0.37308880  0.61613295  0.42566337    -0.24400
N2202       N  0.38741559  0.59062154  0.33085098    -0.24000
N2203       N  0.37491486  0.52326619  0.42986101     0.03000
C2204       C  0.28733452  0.61665859  0.38456554     0.44400
C2205       C  0.36205670  0.50018592  0.33467344    -0.05300
N2206       N  0.42712051  0.59340582  0.36904631    -0.24000
H2207       H  0.39771298  0.57763525  0.29250551     0.08600
N2208       N  0.29482671  0.59672310  0.39935977    -0.45200
H2209       H  0.35072027  0.48369211  0.34090476     0.08500
C2210       C  0.45711787  0.51702309  0.39493033     0.44200
C2211       C  0.29615257  0.53487831  0.39737300    -0.04800
Co2212     Co  0.37474505  0.51949206  0.39004246     0.73800
N2213       N  0.38329499  0.53007044  0.31044158    -0.45000
C2214       C  0.37314547  0.62061449  0.46996453     0.44500
N2215       N  0.38718493  0.50802722  0.44653490    -0.44900
Co2216     Co  0.40699193  0.56382886  0.35247300     0.73900
C2217       C  0.45285126  0.59558679  0.36802299    -0.05300
C2218       C  0.31171566  0.62834672  0.37420617    -0.04800
N2219       N  0.36150618  0.54187125  0.44129471    -0.24400
N2220       N  0.36592158  0.62608333  0.32099383    -0.45100
H2221       H  0.39497140  0.64840696  0.44165437     0.08500
C2222       C  0.43227862  0.50626621  0.40276321    -0.05300
Cl2223     Cl  0.37404706  0.56728176  0.38630785    -0.48300
C2224       C  0.36762184  0.50941497  0.30863441     0.44300
H2225       H  0.35533596  0.55180023  0.48167137     0.08500
N2226       N  0.45256932  0.53565457  0.37718169    -0.45000
C2227       C  0.54138743  0.12358618  0.99693541     0.44100
N2228       N  0.58131843  0.13193124  0.99086072     0.03000
C2229       C  0.63374780  0.18938532  0.88155237    -0.04900
H2230       H  0.56548261  0.10733355  0.86500420     0.08500
C2231       C  0.63988623  0.04901972  0.92109525    -0.05200
Co2232     Co  0.58976219  0.16306445  0.94325609     0.74200
N2233       N  0.58252501  0.12859735  0.89721843    -0.24400
Co2234     Co  0.62527025  0.12700168  0.89728621     0.74100
C2235       C  0.62663793  0.04204165  0.89785781     0.44200
N2236       N  0.63479397  0.07841388  0.97777949     0.02600
N2237       N  0.62647579  0.08433652  0.90128511     0.02700
N2238       N  0.60903914  0.20706999  0.91312902    -0.45200
H2239       H  0.52859339  0.14770367  0.96164095     0.08500
N2240       N  0.57090823  0.14280930  0.91535636     0.03000
N2241       N  0.66788772  0.12557377  0.90030644     0.02800
C2242       C  0.71000267  0.12481708  0.89554835     0.44400
N2243       N  0.62120805  0.09205438  0.99465917    -0.23800
C2244       C  0.61270880  0.20951156  0.97325203    -0.04800
N2245       N  0.56527264  0.11984149  0.00677178    -0.44900
N2246       N  0.68709753  0.13267222  0.88406931    -0.45200
C2247       C  0.62924902  0.21211491  0.99576113     0.44100
N2248       N  0.60997057  0.18154993  0.91489187     0.03000
N2249       N  0.66132422  0.13201269  0.99418715    -0.23900
N2250       N  0.56922580  0.14378984  0.97167128    -0.24400
N2251       N  0.67489757  0.11842954  0.97723853     0.02700
H2252       H  0.67232424  0.15692028  0.02594257     0.08500
H2253       H  0.71614048  0.10284476  0.93332814     0.08600
N2254       N  0.62407041  0.16980180  0.89672967    -0.24400
N2255       N  0.63884977  0.07485163  0.92177968    -0.24000
N2256       N  0.62135665  0.17202623  0.99033690     0.03000
C2257       C  0.53817212  0.13013837  0.89324561     0.44400
C2258       C  0.60804080  0.07574876  0.00999480    -0.05300
N2259       N  0.67774000  0.11375401  0.92097025    -0.24000
H2260       H  0.64975956  0.03664234  0.93492112     0.08600
N2261       N  0.54540284  0.14423954  0.91350917    -0.45200
H2262       H  0.59523262  0.08113191  0.02584685     0.08500
C2263       C  0.70327142  0.13740806  0.00011661     0.44200
C2264       C  0.54361970  0.14006645  0.97418748    -0.04800
Co2265     Co  0.62127318  0.13207022  0.99323029     0.73800
N2266       N  0.63185837  0.05309264  0.98065479    -0.45000
C2267       C  0.62335358  0.21422665  0.89290702     0.44500
N2268       N  0.63332540  0.18833771  0.00592720    -0.44900
Co2269     Co  0.65666158  0.09634552  0.94951639     0.73900
C2270       C  0.70351929  0.11247477  0.91954824    -0.05300
C2271       C  0.56291675  0.11935640  0.88200635    -0.04800
N2272       N  0.60925395  0.18385309  0.97113139    -0.24400
N2273       N  0.61870337  0.06477468  0.88594356    -0.45100
H2274       H  0.64595694  0.18676986  0.86464492     0.08500
C2275       C  0.67768559  0.14453011  0.00980890    -0.05300
Cl2276     Cl  0.62329032  0.12960925  0.94525490    -0.48300
C2277       C  0.61463690  0.05017761  0.00003898     0.44300
H2278       H  0.60475641  0.22437249  0.96066114     0.08500
N2279       N  0.70025180  0.12061559  0.98045104    -0.45000
C2280       C  0.20953731  0.89249391  0.62977995     0.44100
N2281       N  0.16733304  0.89655173  0.62996184     0.03000
C2282       C  0.10422447  0.00425012  0.57878723    -0.04900
H2283       H  0.17054927  0.02205607  0.65794229     0.08500
C2284       C  0.11368953  0.97182933  0.71328383    -0.05200
Co2285     Co  0.15426474  0.94439548  0.59909060     0.74200
N2286       N  0.15923674  0.99004943  0.63348547    -0.24400
Co2287     Co  0.11929906  0.98873621  0.63487667     0.74100
C2288       C  0.12962925  0.99489435  0.71445621     0.44200
N2289       N  0.11145070  0.91195029  0.68680792     0.02600
N2290       N  0.12097489  0.98723750  0.67486130     0.02700
N2291       N  0.12771471  0.97488531  0.55583063    -0.45200
H2292       H  0.21481299  0.92908544  0.60554244     0.08500
N2293       N  0.17262191  0.97300335  0.61981822     0.03000
N2294       N  0.07940256  0.98615334  0.63627079     0.02800
C2295       C  0.03907826  0.99159674  0.62949695     0.44400
N2296       N  0.12506070  0.89356110  0.67481887    -0.23800
C2297       C  0.13737353  0.91376266  0.55318054    -0.04800
N2298       N  0.18689755  0.88129038  0.63835918    -0.44900
N2299       N  0.06259184  0.00147245  0.62423326    -0.45200
C2300       C  0.12511226  0.88967527  0.54743170     0.44100
N2301       N  0.13103433  0.97190141  0.58113474     0.03000
N2302       N  0.08225074  0.89299637  0.63463973    -0.23900
N2303       N  0.17662015  0.91662292  0.61685807    -0.24400
N2304       N  0.07087385  0.91109464  0.64913574     0.02700
H2305       H  0.06483094  0.86157406  0.61259045     0.08500
H2306       H  0.02787343  0.95717292  0.65538967     0.08600
N2307       N  0.11771992  0.98891584  0.59490560    -0.24400
N2308       N  0.10968958  0.96836456  0.68781853    -0.24000
N2309       N  0.12503203  0.89529788  0.58947756     0.03000
C2310       C  0.20118601  0.99621611  0.63795843     0.44400
C2311       C  0.13555668  0.87852180  0.69408898    -0.05300
N2312       N  0.06814352  0.96734549  0.64934236    -0.24000
H2313       H  0.10633191  0.95982254  0.72887642     0.08600
N2314       N  0.19798569  0.97632551  0.62149389    -0.45200
H2315       H  0.14757622  0.86148558  0.69117031     0.08500
C2316       C  0.03790072  0.88971589  0.63596539     0.44200
C2317       C  0.20247285  0.91550882  0.61567177    -0.04800
Co2318     Co  0.12490847  0.89300798  0.63220888     0.73800
N2319       N  0.11163596  0.91048723  0.71237678    -0.45000
C2320       C  0.11040010  0.99439701  0.55311058     0.44500
N2321       N  0.11778873  0.87869013  0.57076005    -0.44900
Co2322     Co  0.08997584  0.93961557  0.66842584     0.73900
C2323       C  0.04235077  0.96957241  0.64672912    -0.05300
C2324       C  0.17573879  0.00589978  0.64547963    -0.04800
N2325       N  0.13650826  0.91569560  0.57894816    -0.24400
N2326       N  0.13286950  0.00388153  0.69013486    -0.45100
H2327       H  0.09191165  0.02045840  0.58434506     0.08500
C2328       C  0.06248259  0.87822939  0.62512957    -0.05300
Cl2329     Cl  0.12213196  0.94086481  0.63362056    -0.48300
C2330       C  0.12632277  0.89020916  0.71906747     0.44300
H2331       H  0.14674932  0.92724206  0.54011953     0.08500
N2332       N  0.04534949  0.90964695  0.65040693    -0.45000
C2333       C  0.11952920  0.71392610  0.89464822     0.44100
N2334       N  0.12060860  0.67198147  0.90025202     0.03000
C2335       C  0.07091518  0.61404816  0.01101814    -0.04900
H2336       H  0.15277550  0.67900358  0.02453359     0.08500
C2337       C  0.20440880  0.61761483  0.97452605    -0.05200
Co2338     Co  0.09096712  0.66149787  0.94938202     0.74200
N2339       N  0.12694091  0.66729157  0.99379542    -0.24400
Co2340     Co  0.12698631  0.62725774  0.99393114     0.74100
C2341       C  0.20705367  0.63449287  0.99682380     0.44200
N2342       N  0.17652065  0.61407712  0.91589684     0.02600
N2343       N  0.16689802  0.62724289  0.99097170     0.02700
N2344       N  0.04791014  0.63664785  0.98093935    -0.45200
H2345       H  0.09667853  0.72063206  0.93182588     0.08500
N2346       N  0.11318389  0.68045529  0.97666723     0.03000
N2347       N  0.12694373  0.58721870  0.99261744     0.02800
C2348       C  0.11908851  0.54734253  0.99951380     0.44400
N2349       N  0.16487976  0.62802482  0.89755403    -0.23800
C2350       C  0.04380559  0.64444147  0.92042246    -0.04800
N2351       N  0.12796239  0.69091930  0.88383961    -0.44900
N2352       N  0.11526877  0.57136428  0.00906288    -0.45200
C2353       C  0.03727275  0.63153907  0.89677771     0.44100
N2354       N  0.07318796  0.64005633  0.97813400     0.03000
N2355       N  0.12360747  0.58678722  0.89850101    -0.23900
N2356       N  0.10824817  0.68211203  0.92046103    -0.24400
N2357       N  0.13731828  0.57532782  0.91712116     0.02700
H2358       H  0.10322822  0.56959024  0.86582065     0.08500
H2359       H  0.14282404  0.53409025  0.96420542     0.08600
N2360       N  0.08699972  0.62713281  0.99540528    -0.24400
N2361       N  0.17872215  0.61457762  0.97213331    -0.24000
N2362       N  0.07944905  0.63081823  0.90136344     0.03000
C2363       C  0.13313871  0.70933206  0.99813024     0.44400
C2364       C  0.18449602  0.63726451  0.88217803    -0.05300
N2365       N  0.13861197  0.57482452  0.97350686    -0.24000
H2366       H  0.21928180  0.60902734  0.96231015     0.08600
N2367       N  0.11587400  0.70588554  0.97892977    -0.45200
H2368       H  0.18193956  0.64919222  0.86505881     0.08500
C2369       C  0.12492956  0.54246552  0.89504305     0.44200
C2370       C  0.10662546  0.70782887  0.91844437    -0.04800
Co2371     Co  0.12212711  0.62943716  0.89788072     0.73800
N2372       N  0.20203816  0.61282587  0.91405769    -0.45000
C2373       C  0.04531231  0.61988310  0.00079371     0.44500
N2374       N  0.06021612  0.62344470  0.88543876    -0.44900
Co2375     Co  0.15781650  0.59461495  0.94465208     0.73900
C2376       C  0.13513763  0.54927634  0.97651351    -0.05300
C2377       C  0.14001551  0.68399267  0.00856336    -0.04800
N2378       N  0.06962405  0.64313733  0.92174974    -0.24400
N2379       N  0.18322217  0.63914936  0.00656731    -0.45100
H2380       H  0.07648330  0.60158758  0.02707858     0.08500
C2381       C  0.11467999  0.56711283  0.88322240    -0.05300
Cl2382     Cl  0.12443626  0.62822403  0.94590302    -0.48300
C2383       C  0.20925451  0.62674114  0.89354386     0.44300
H2384       H  0.03122176  0.65452548  0.93391956     0.08500
N2385       N  0.13856420  0.54978048  0.91561348    -0.45000
C2386       C  0.98477728  0.54109846  0.12595011     0.44100
N2387       N  0.98017496  0.58138113  0.13417854     0.03000
C2388       C  0.87466484  0.63952873  0.19479655    -0.04900
H2389       H  0.85356868  0.57129616  0.11406327     0.08500
C2390       C  0.91032059  0.64332054  0.05412822    -0.05200
Co2391     Co  0.93433751  0.59237752  0.16753826     0.74200
N2392       N  0.88699976  0.58690190  0.13446487    -0.24400
Co2393     Co  0.88878084  0.62947669  0.13274106     0.74100
C2394       C  0.88669830  0.63048891  0.04789589     0.44200
N2395       N  0.96775883  0.63540097  0.08117897     0.02600
N2396       N  0.89144989  0.63045166  0.09002829     0.02700
N2397       N  0.90572343  0.61418329  0.21271867    -0.45200
H2398       H  0.95024592  0.52999906  0.15191534     0.08500
N2399       N  0.90496070  0.57458881  0.14832760     0.03000
N2400       N  0.89338756  0.67172201  0.13160514     0.02800
C2401       C  0.88987684  0.71390008  0.13275468     0.44400
N2402       N  0.98427613  0.62081704  0.09423284    -0.23800
C2403       C  0.96690068  0.61507321  0.21237911    -0.04800
N2404       N  0.99502975  0.56460708  0.12159238    -0.44900
N2405       N  0.87806749  0.69118307  0.14007012    -0.45200
C2406       C  0.99021984  0.63046750  0.21385537     0.44100
N2407       N  0.90722607  0.61427939  0.18707668     0.03000
N2408       N  0.98749297  0.66082280  0.13413189    -0.23900
N2409       N  0.96119489  0.57023266  0.14708349    -0.24400
N2410       N  0.97053244  0.67542466  0.12164183     0.02700
H2411       H  0.02097524  0.66970691  0.15760630     0.08500
H2412       H  0.92712235  0.71947527  0.10956396     0.08600
N2413       N  0.88930003  0.62874396  0.17536301    -0.24400
N2414       N  0.91183172  0.64233959  0.07991206    -0.24000
N2415       N  0.98327604  0.62152358  0.17421964     0.03000
C2416       C  0.88119394  0.54285900  0.13625469     0.44400
C2417       C  0.99881484  0.60725364  0.07745462    -0.05300
N2418       N  0.91394109  0.68109607  0.11933759    -0.24000
H2419       H  0.92409176  0.65255731  0.04129151     0.08600
N2420       N  0.90212240  0.54919516  0.14982143    -0.45200
H2421       H  0.01454431  0.59404646  0.08238433     0.08500
C2422       C  0.99569613  0.70219802  0.13995687     0.44200
C2423       C  0.96282698  0.54446904  0.14347367    -0.04800
Co2424     Co  0.98446187  0.62101370  0.13419425     0.73800
N2425       N  0.97039946  0.63290073  0.05572680    -0.45000
C2426       C  0.88592389  0.62954558  0.21970511     0.44500
N2427       N  0.99985778  0.63326406  0.18971582    -0.44900
Co2428     Co  0.94108254  0.65876892  0.10046195     0.73900
C2429       C  0.91327458  0.70700341  0.11914415    -0.05300
C2430       C  0.87073814  0.56800154  0.12567087    -0.04800
N2431       N  0.96387743  0.61083631  0.18693029    -0.24400
N2432       N  0.87542888  0.62281119  0.07096737    -0.45100
H2433       H  0.85815588  0.65230051  0.19202928     0.08500
C2434       C  0.00455810  0.67610408  0.14605805    -0.05300
Cl2435     Cl  0.93662040  0.62546276  0.13371603    -0.48300
C2436       C  0.98907502  0.61481267  0.05210151     0.44300
H2437       H  0.95425747  0.60847731  0.22780986     0.08500
N2438       N  0.97502668  0.70053828  0.12417732    -0.45000
C2439       C  0.99205993  0.20543727  0.63280452     0.44100
N2440       N  0.98241841  0.16589904  0.62662419     0.03000
C2441       C  0.86860385  0.11949034  0.57442164    -0.04900
H2442       H  0.85696604  0.18718227  0.65737946     0.08500
C2443       C  0.91205016  0.11329939  0.71368849    -0.05200
Co2444     Co  0.93281460  0.16039035  0.59843006     0.74200
N2445       N  0.88824075  0.16953814  0.63479929    -0.24400
Co2446     Co  0.88664162  0.12708891  0.63617912     0.74100
C2447       C  0.88896493  0.12729709  0.72089431     0.44200
N2448       N  0.96863283  0.11400527  0.68137778     0.02600
N2449       N  0.89177071  0.12624381  0.67859134     0.02700
N2450       N  0.90026846  0.14296546  0.55569670    -0.45200
H2451       H  0.95577714  0.22036806  0.61139847     0.08500
N2452       N  0.90651615  0.18062014  0.62043292     0.03000
N2453       N  0.88802263  0.08441963  0.63784686     0.02800
C2454       C  0.88165235  0.04255761  0.63929329     0.44400
N2455       N  0.98564989  0.12610841  0.66667429    -0.23800
C2456       C  0.96067258  0.13646111  0.55027282    -0.04800
N2457       N  0.00042393  0.18093075  0.63670218    -0.44900
N2458       N  0.87117543  0.06585149  0.63097279    -0.45200
C2459       C  0.98244076  0.11868611  0.54659335     0.44100
N2460       N  0.90288993  0.14180706  0.58112640     0.03000
N2461       N  0.98072661  0.08588586  0.62691473    -0.23900
N2462       N  0.96322107  0.17918535  0.61603110    -0.24400
N2463       N  0.96400956  0.07356283  0.64172796     0.02700
H2464       H  0.00999744  0.07266989  0.59979987     0.08500
H2465       H  0.91934031  0.03504994  0.66092333     0.08600
N2466       N  0.88476188  0.12835558  0.59346455    -0.24400
N2467       N  0.91227549  0.11355883  0.68777697    -0.24000
N2468       N  0.97755441  0.12563853  0.58710699     0.03000
C2469       C  0.88558259  0.21379129  0.63478257     0.44400
C2470       C  0.00284688  0.13796154  0.68195576    -0.05300
N2471       N  0.90829331  0.07382027  0.64968067    -0.24000
H2472       H  0.92584286  0.10324116  0.72595974     0.08600
N2473       N  0.90545740  0.20624624  0.61989472    -0.45200
H2474       H  0.01921515  0.14938967  0.67555067     0.08500
C2475       C  0.98388433  0.04353374  0.62108184     0.44200
C2476       C  0.96778736  0.20460724  0.61866580    -0.04800
Co2477     Co  0.98222232  0.12582255  0.62676857     0.73800
N2478       N  0.97318215  0.11667538  0.70647717    -0.45000
C2479       C  0.87934142  0.12960481  0.54922810     0.44500
N2480       N  0.99243576  0.11336588  0.57012610    -0.44900
Co2481     Co  0.93841530  0.09371436  0.66527342     0.73900
C2482       C  0.90582714  0.04816276  0.65153207    -0.05300
C2483       C  0.87376783  0.18939429  0.64497650    -0.04800
N2484       N  0.95888532  0.13927160  0.57609781    -0.24400
N2485       N  0.87685487  0.13487278  0.69827834    -0.45100
H2486       H  0.85138824  0.10803026  0.57762560     0.08500
C2487       C  0.99438883  0.06845430  0.61324342    -0.05300
Cl2488     Cl  0.93445219  0.12680665  0.63173977    -0.48300
C2489       C  0.99400178  0.13207320  0.70811106     0.44300
H2490       H  0.94856236  0.14593611  0.53592241     0.08500
N2491       N  0.96566875  0.04804830  0.63932326    -0.45000
C2492       C  0.53763365  0.88986422  0.13865525     0.44100
N2493       N  0.57969175  0.89493715  0.13742218     0.03000
C2494       C  0.63709150  0.00572743  0.18644225    -0.04900
H2495       H  0.57109286  0.01854311  0.10454911     0.08500
C2496       C  0.63130188  0.97032681  0.05283468    -0.05200
Co2497     Co  0.59043867  0.94385167  0.16696798     0.74200
N2498       N  0.58361132  0.98839950  0.13113045    -0.24400
Co2499     Co  0.62363111  0.98843299  0.13058513     0.74100
C2500       C  0.61440936  0.99297766  0.05084117     0.44200
N2501       N  0.63590466  0.91089767  0.08058023     0.02600
N2502       N  0.62271216  0.98607785  0.09074800     0.02700
N2503       N  0.61465864  0.97610275  0.20982687    -0.45200
H2504       H  0.53127848  0.92686525  0.16168201     0.08500
N2505       N  0.57086794  0.97122367  0.14505275     0.03000
N2506       N  0.66362794  0.98695803  0.12988264     0.02800
C2507       C  0.70361266  0.99418855  0.13649740     0.44400
N2508       N  0.62308891  0.89211691  0.09263056    -0.23800
C2509       C  0.60938961  0.91505417  0.21371057    -0.04800
N2510       N  0.56060391  0.87885935  0.13008943    -0.44900
N2511       N  0.67954867  0.00340582  0.14115164    -0.45200
C2512       C  0.62336170  0.89180564  0.22002015     0.44100
N2513       N  0.61186422  0.97253524  0.18455361     0.03000
N2514       N  0.66496058  0.89309319  0.13309333    -0.23900
N2515       N  0.56968670  0.91512097  0.14993352    -0.24400
N2516       N  0.67603244  0.91144354  0.11881058     0.02700
H2517       H  0.68263726  0.86086372  0.15431267     0.08500
H2518       H  0.71671206  0.95915167  0.11214883     0.08600
N2519       N  0.62455773  0.98966377  0.17053969    -0.24400
N2520       N  0.63503627  0.96731561  0.07843312    -0.24000
N2521       N  0.62209545  0.89595851  0.17787771     0.03000
C2522       C  0.54153444  0.99191037  0.12445105     0.44400
C2523       C  0.61475693  0.87592054  0.07343423    -0.05300
N2524       N  0.67594498  0.96807823  0.11769955    -0.24000
H2525       H  0.63952678  0.95834337  0.03761350     0.08600
N2526       N  0.54541796  0.97301192  0.14208984    -0.45200
H2527       H  0.60426639  0.85805555  0.07644890     0.08500
C2528       C  0.70924415  0.88933613  0.13148773     0.44200
C2529       C  0.54396942  0.91340658  0.15166027    -0.04800
Co2530     Co  0.62241237  0.89247042  0.13529760     0.73800
N2531       N  0.63705702  0.90871637  0.05509949    -0.45000
C2532       C  0.63096560  0.99619470  0.21227493     0.44500
N2533       N  0.63085049  0.88037888  0.19700548    -0.44900
Co2534     Co  0.65580883  0.93941561  0.09879607     0.73900
C2535       C  0.70155312  0.97128455  0.12040689    -0.05300
C2536       C  0.56654971  0.00279422  0.11770498    -0.04800
N2537       N  0.60959714  0.91618502  0.18788316    -0.24400
N2538       N  0.61047363  0.00221512  0.07491795    -0.45100
H2539       H  0.64883758  0.02209219  0.18063526     0.08500
C2540       C  0.68483858  0.87793212  0.14226002    -0.05300
Cl2541     Cl  0.62308726  0.94044402  0.13293624    -0.48300
C2542       C  0.62434670  0.88741280  0.04845172     0.44300
H2543       H  0.59962902  0.92858971  0.22650369     0.08500
N2544       N  0.70161831  0.90976156  0.11736835    -0.45000
C2545       C  0.00423984  0.61329983  0.02914161    -0.11600
C2546       C  0.02153362  0.61494974  0.01373787    -0.13200
C2547       C  0.99860002  0.02023115  0.62045557    -0.11600
C2548       C  0.01555053  0.00457538  0.62337263    -0.13200
C2549       C  0.61096326  0.00882074  0.02857100    -0.11600
C2550       C  0.61093415  0.02642599  0.01342991    -0.13200
C2551       C  0.37843751  0.62719895  0.52140364    -0.11600
C2552       C  0.37711766  0.62652456  0.49757768    -0.13200
C2553       C  0.50125121  0.52372401  0.62393111    -0.11600
C2554       C  0.51740206  0.50703496  0.62551189    -0.13200
C2555       C  0.48599018  0.38204771  0.63229985    -0.11600
C2556       C  0.50979970  0.38310694  0.63295438    -0.13200
C2557       C  0.38503919  0.48556854  0.50869077    -0.11600
C2558       C  0.38500431  0.50272926  0.49305850    -0.13200
C2559       C  0.37507167  0.51611293  0.63491288    -0.11600
C2560       C  0.37279929  0.49238763  0.63319176    -0.13200
C2561       C  0.63441624  0.52317248  0.75587094    -0.11600
C2562       C  0.63418674  0.50675345  0.73955608    -0.13200
C2563       C  0.51790826  0.63700144  0.75580108    -0.11600
C2564       C  0.50239757  0.63772257  0.73863930    -0.13200
C2565       C  0.25824751  0.47819590  0.37732456    -0.11600
C2566       C  0.27372199  0.49530418  0.37775607    -0.13200
C2567       C  0.25437995  0.36564932  0.49092898    -0.11600
C2568       C  0.27226191  0.36656970  0.50557812    -0.13200
C2569       C  0.50708128  0.73092830  0.64228319    -0.11600
C2570       C  0.52461411  0.74600303  0.64225828    -0.13200
C2571       C  0.61656007  0.74693739  0.73475092    -0.11600
C2572       C  0.61357467  0.73060478  0.75097122    -0.13200
C2573       C  0.26578587  0.25293454  0.39690259    -0.11600
C2574       C  0.24991280  0.26981050  0.39864164    -0.13200
C2575       C  0.36406435  0.26166476  0.48581924    -0.11600
C2576       C  0.36643712  0.27765233  0.50236724    -0.13200
C2577       C  0.38008148  0.13308192  0.27186204    -0.11600
C2578       C  0.38137065  0.13222962  0.24808718    -0.13200
C2579       C  0.50023584  0.02040789  0.12084390    -0.11600
C2580       C  0.51740475  0.00471898  0.12079103    -0.13200
C2581       C  0.50268075  0.11742645  0.02838946    -0.11600
C2582       C  0.51856132  0.11887585  0.01152526    -0.13200
C2583       C  0.36906552  0.62363985  0.24724606    -0.11600
C2584       C  0.37024648  0.62213275  0.27100559    -0.13200
C2585       C  0.22984154  0.63805985  0.01164039    -0.11600
C2586       C  0.24560075  0.63880504  0.02856447    -0.13200
C2587       C  0.36839340  0.24152720  0.63171843    -0.11600
C2588       C  0.36975656  0.26531357  0.62976914    -0.13200
C2589       C  0.37158704  0.13247807  0.52162123    -0.11600
C2590       C  0.37351030  0.13437803  0.49793324    -0.13200
C2591       C  0.24216002  0.02509886  0.64070370    -0.11600
C2592       C  0.22475901  0.00991601  0.64063915    -0.13200
C2593       C  0.48673682  0.28302167  0.37540047    -0.11600
C2594       C  0.47146733  0.26578043  0.37393477    -0.13200
C2595       C  0.49656147  0.39327716  0.49215781    -0.11600
C2596       C  0.48065825  0.39213770  0.50908343    -0.13200
C2597       C  0.62034459  0.37905159  0.49829410    -0.11600
C2598       C  0.62190351  0.38133865  0.52199878    -0.13200
C2599       C  0.49933870  0.48936941  0.39723329    -0.11600
C2600       C  0.48152014  0.50437129  0.39768696    -0.13200
C2601       C  0.50895843  0.62811565  0.38984125    -0.11600
C2602       C  0.48533829  0.62669176  0.38695837    -0.13200
C2603       C  0.52054064  0.61501804  0.51567791    -0.11600
C2604       C  0.50307633  0.61605614  0.53093619    -0.13200
C2605       C  0.61473139  0.52433097  0.51561918    -0.11600
C2606       C  0.61223076  0.50803366  0.53189687    -0.13200
C2607       C  0.62102103  0.51467804  0.39223449    -0.11600
C2608       C  0.62103243  0.49087128  0.39120556    -0.13200
C2609       C  0.63464060  0.73331696  0.51245904    -0.11600
C2610       C  0.63569123  0.75073969  0.52768992    -0.13200
C2611       C  0.37875970  0.26555376  0.13872819    -0.11600
C2612       C  0.38062165  0.24183019  0.13757636    -0.13200
C2613       C  0.37193967  0.49131017  0.14030051    -0.11600
C2614       C  0.36978196  0.51489174  0.13765932    -0.13200
C2615       C  0.36432382  0.49471677  0.28565667    -0.11600
C2616       C  0.36382284  0.47861884  0.26900564    -0.13200
C2617       C  0.27034242  0.38692806  0.26556016    -0.11600
C2618       C  0.25531698  0.38652938  0.28319962    -0.13200
C2619       C  0.38293217  0.27092959  0.26107996    -0.11600
C2620       C  0.38128429  0.25495511  0.27776220    -0.13200
C2621       C  0.47714248  0.36876116  0.26724896    -0.11600
C2622       C  0.49316120  0.37164542  0.28366170    -0.13200
C2623       C  0.24232945  0.52483392  0.14048894    -0.11600
C2624       C  0.22677975  0.50779096  0.14080673    -0.13200
C2625       C  0.23706269  0.38304592  0.13864720    -0.11600
C2626       C  0.26088099  0.38264199  0.13981414    -0.13200
C2627       C  0.13058559  0.38014511  0.27200150    -0.11600
C2628       C  0.12799451  0.38181270  0.24832295    -0.13200
C2629       C  0.11424126  0.50750176  0.02991322    -0.11600
C2630       C  0.11481335  0.52449283  0.01414272    -0.13200
C2631       C  0.01767848  0.50328042  0.12255570    -0.11600
C2632       C  0.99978040  0.51817381  0.12263135    -0.13200
C2633       C  0.23569324  0.37769408  0.63187330    -0.11600
C2634       C  0.25943377  0.37834892  0.62985476    -0.13200
C2635       C  0.24504919  0.23339572  0.62677913    -0.11600
C2636       C  0.22990930  0.25114220  0.62725993    -0.13200
C2637       C  0.12657022  0.37822489  0.49856069    -0.11600
C2638       C  0.12474112  0.37726370  0.52234715    -0.13200
C2639       C  0.00769244  0.22754752  0.63717866    -0.11600
C2640       C  0.02377068  0.24400775  0.63936461    -0.13200
C2641       C  0.61830110  0.37287665  0.27155962    -0.11600
C2642       C  0.62068299  0.37051918  0.24784648    -0.13200
C2643       C  0.52433495  0.24475123  0.14243541    -0.11600
C2644       C  0.50863048  0.22787003  0.14379931    -0.13200
C2645       C  0.51133454  0.37310907  0.13820564    -0.11600
C2646       C  0.48759567  0.37495682  0.13988736    -0.13200
C2647       C  0.63368490  0.23525447  0.00978680    -0.11600
C2648       C  0.63462404  0.25191586  0.02581232    -0.13200
C2649       C  0.22892544  0.12010545  0.75575424    -0.11600
C2650       C  0.24441567  0.11778779  0.73858612    -0.13200
C2651       C  0.13593332  0.02704063  0.75260437    -0.11600
C2652       C  0.13441171  0.01028938  0.73668655    -0.13200
C2653       C  0.11384275  0.23475066  0.75616518    -0.11600
C2654       C  0.11422688  0.25092025  0.73948868    -0.13200
C2655       C  0.00817515  0.13596534  0.73132639    -0.11600
C2656       C  0.02317908  0.13708162  0.74893877    -0.13200
C2657       C  0.74662135  0.73399575  0.62195368    -0.11600
C2658       C  0.73202781  0.75218156  0.62206103    -0.13200
C2659       C  0.72598235  0.50904082  0.64173133    -0.11600
C2660       C  0.74305008  0.52458147  0.64048615    -0.13200
C2661       C  0.74151630  0.61695765  0.73526398    -0.11600
C2662       C  0.72535965  0.61762402  0.75192729    -0.13200
C2663       C  0.74652895  0.63942500  0.52761711    -0.11600
C2664       C  0.72944580  0.63940212  0.51198908    -0.13200
C2665       C  0.74760142  0.23372919  0.12106588    -0.11600
C2666       C  0.73121006  0.25016446  0.11932837    -0.13200
C2667       C  0.72671117  0.14001278  0.01422355    -0.11600
C2668       C  0.74349420  0.14007413  0.03020141    -0.13200
C2669       C  0.74227965  0.02565165  0.14129447    -0.11600
C2670       C  0.72617592  0.00917034  0.14029069    -0.13200
C2671       C  0.13028222  0.51543162  0.38069091    -0.11600
C2672       C  0.13204261  0.49167621  0.38193518    -0.13200
C2673       C  0.23606982  0.62467145  0.38038287    -0.11600
C2674       C  0.25973743  0.62290080  0.38172375    -0.13200
C2675       C  0.22664328  0.61552620  0.25352766    -0.11600
C2676       C  0.24293336  0.61613457  0.23699193    -0.13200
C2677       C  0.13470571  0.50739529  0.23746099    -0.11600
C2678       C  0.13406940  0.52327285  0.25433032    -0.13200
C2679       C  0.01999303  0.63711621  0.25382068    -0.11600
C2680       C  0.00455695  0.63583122  0.23662721    -0.13200
C2681       C  0.11773449  0.74724751  0.23629345    -0.11600
C2682       C  0.11599851  0.73122495  0.25296682    -0.13200
C2683       C  0.13609285  0.74997276  0.02753317    -0.11600
C2684       C  0.13609271  0.73306047  0.01168649    -0.13200
C2685       C  0.23175862  0.75081356  0.12072388    -0.11600
C2686       C  0.24746381  0.73368992  0.12172740    -0.13200
C2687       C  0.02601552  0.74214224  0.14306233    -0.11600
C2688       C  0.01051715  0.72502374  0.14307521    -0.13200
C2689       C  0.61729489  0.24062993  0.38222763    -0.11600
C2690       C  0.61479486  0.26437749  0.38313771    -0.13200
C2691       C  0.48742006  0.13317296  0.38465515    -0.11600
C2692       C  0.51108097  0.13063013  0.38300190    -0.13200
C2693       C  0.61630378  0.23351157  0.25440435    -0.11600
C2694       C  0.61720837  0.24723145  0.23568381    -0.13200
C2695       C  0.74287196  0.11795417  0.23770507    -0.11600
C2696       C  0.72670089  0.11884922  0.25434243    -0.13200
C2697       C  0.52039504  0.13942720  0.25454627    -0.11600
C2698       C  0.50527426  0.13659878  0.23724554    -0.13200
C2699       C  0.63327947  0.01102700  0.23530017    -0.11600
C2700       C  0.63287848  0.02740117  0.25169898    -0.13200
C2701       C  0.12558572  0.24190245  0.38752671    -0.11600
C2702       C  0.12661615  0.26566982  0.38666549    -0.13200
C2703       C  0.23769209  0.12884956  0.39086000    -0.11600
C2704       C  0.26144859  0.13024565  0.38936522    -0.13200
C2705       C  0.13027931  0.23373582  0.51461144    -0.11600
C2706       C  0.13231823  0.24970893  0.53129875    -0.13200
C2707       C  0.22467620  0.13947395  0.51641491    -0.11600
C2708       C  0.24238880  0.13926991  0.53136421    -0.13200
C2709       C  0.01542467  0.11861682  0.50870667    -0.11600
C2710       C  0.99794295  0.11701594  0.52389263    -0.13200
C2711       C  0.10856841  0.02605878  0.51402761    -0.11600
C2712       C  0.10793092  0.00928044  0.53006396    -0.13200
C2713       C  0.87053633  0.76529832  0.63228233    -0.11600
C2714       C  0.86893760  0.74150539  0.63346907    -0.13200
C2715       C  0.75964249  0.87966169  0.62990238    -0.11600
C2716       C  0.73587394  0.87920056  0.63139832    -0.13200
C2717       C  0.98627442  0.88350572  0.63297849    -0.11600
C2718       C  0.01010255  0.88425638  0.63327379    -0.13200
C2719       C  0.87163733  0.99195365  0.63310954    -0.11600
C2720       C  0.87327045  0.01563619  0.63543573    -0.13200
C2721       C  0.87196994  0.12160187  0.27126376    -0.11600
C2722       C  0.87004653  0.12319515  0.24754995    -0.13200
C2723       C  0.73720226  0.12180817  0.37882245    -0.11600
C2724       C  0.76096940  0.12014246  0.37988418    -0.13200
C2725       C  0.01110845  0.12658844  0.38660066    -0.11600
C2726       C  0.98731920  0.12547066  0.38555247    -0.13200
C2727       C  0.87266363  0.12613128  0.49774931    -0.11600
C2728       C  0.87293500  0.12679491  0.52160990    -0.13200
C2729       C  0.88696717  0.98312329  0.50798882    -0.11600
C2730       C  0.88694550  0.00065321  0.49273287    -0.13200
C2731       C  0.11833594  0.87221335  0.24667144    -0.11600
C2732       C  0.11580046  0.87469101  0.27030581    -0.13200
C2733       C  0.11411194  0.76518923  0.37999859    -0.11600
C2734       C  0.11755821  0.74155982  0.37835170    -0.13200
C2735       C  0.12509347  0.99132914  0.38738420    -0.11600
C2736       C  0.12581192  0.01513049  0.38888291    -0.13200
C2737       C  0.00246112  0.99172787  0.40022785    -0.11600
C2738       C  0.98462896  0.00667474  0.40015415    -0.13200
C2739       C  0.12264514  0.88056474  0.52052018    -0.11600
C2740       C  0.12140663  0.87820276  0.49679687    -0.13200
C2741       C  0.98155168  0.88938923  0.50989090    -0.11600
C2742       C  0.99743659  0.89171689  0.49308117    -0.13200
C2743       C  0.75719191  0.86526793  0.48601115    -0.11600
C2744       C  0.77410681  0.86700922  0.50181163    -0.13200
C2745       C  0.62651001  0.87863445  0.49697724    -0.11600
C2746       C  0.62453521  0.87752778  0.52070898    -0.13200
C2747       C  0.62258886  0.74109636  0.38965607    -0.11600
C2748       C  0.62412558  0.76478175  0.38821918    -0.13200
C2749       C  0.63076890  0.99048328  0.38118544    -0.11600
C2750       C  0.62849018  0.01415169  0.37885047    -0.13200
C2751       C  0.76048903  0.97442725  0.37715772    -0.11600
C2752       C  0.77655097  0.99092218  0.37904278    -0.13200
C2753       C  0.62700730  0.88367648  0.24708621    -0.11600
C2754       C  0.62818591  0.88181944  0.27082228    -0.13200
C2755       C  0.75998193  0.63162806  0.38759705    -0.11600
C2756       C  0.73610121  0.63069228  0.38863917    -0.13200
C2757       C  0.76467316  0.75257360  0.39970645    -0.11600
C2758       C  0.74758264  0.76818079  0.39758452    -0.13200
C2759       C  0.86610299  0.75677322  0.49175160    -0.11600
C2760       C  0.86804179  0.77370334  0.50740423    -0.13200
C2761       C  0.87185815  0.63364089  0.49743736    -0.11600
C2762       C  0.87092153  0.63267138  0.52122508    -0.13200
C2763       C  0.98676220  0.63529067  0.37891436    -0.11600
C2764       C  0.01050750  0.63354046  0.37819256    -0.13200
C2765       C  0.98491292  0.78500838  0.37578642    -0.11600
C2766       C  0.97036664  0.76704313  0.37523550    -0.13200
C2767       C  0.87796553  0.63616576  0.27105765    -0.11600
C2768       C  0.87991164  0.63388025  0.24735463    -0.13200
C2769       C  0.87058564  0.99039057  0.13713330    -0.11600
C2770       C  0.86886081  0.01414177  0.13557830    -0.13200
C2771       C  0.98684837  0.87239088  0.13954991    -0.11600
C2772       C  0.01063030  0.87092355  0.13847538    -0.13200
C2773       C  0.86630526  0.99519142  0.28448917    -0.11600
C2774       C  0.86525760  0.98044994  0.26663320    -0.13200
C2775       C  0.97551075  0.87179370  0.26753178    -0.11600
C2776       C  0.99071463  0.87503131  0.28465576    -0.13200
C2777       C  0.88170475  0.77485619  0.26501608    -0.11600
C2778       C  0.87926165  0.76047447  0.28298646    -0.13200
C2779       C  0.87831151  0.76453172  0.13781128    -0.11600
C2780       C  0.88139906  0.74096483  0.13598732    -0.13200
C2781       C  0.75171827  0.88401990  0.27886784    -0.11600
C2782       C  0.76835153  0.88589726  0.26282614    -0.13200
C2783       C  0.76073535  0.88110593  0.13620607    -0.11600
C2784       C  0.73701407  0.88308570  0.13440432    -0.13200
C2785       C  0.76031055  0.62248839  0.87961654    -0.11600
C2786       C  0.73661521  0.62474464  0.87790644    -0.13200
C2787       C  0.87118057  0.62396141  0.77072787    -0.11600
C2788       C  0.86890312  0.62571901  0.74708897    -0.13200
C2789       C  0.98648871  0.62811244  0.88554745    -0.11600
C2790       C  0.01017297  0.62930519  0.88815361    -0.13200
C2791       C  0.87716893  0.62608966  0.99698492    -0.11600
C2792       C  0.87868507  0.62718345  0.02076791    -0.13200
C2793       C  0.86963708  0.26479099  0.13068319    -0.11600
C2794       C  0.86888930  0.24094990  0.13206229    -0.13200
C2795       C  0.73691850  0.37695477  0.13240773    -0.11600
C2796       C  0.76054802  0.37856782  0.13035554    -0.13200
C2797       C  0.87310909  0.49161022  0.13228911    -0.11600
C2798       C  0.87434680  0.51538551  0.13349729    -0.13200
C2799       C  0.88587857  0.48412672  0.00743052    -0.11600
C2800       C  0.88546675  0.50130016  0.99175743    -0.13200
C2801       C  0.98650534  0.38088734  0.13374083    -0.11600
C2802       C  0.01029963  0.38211855  0.13446935    -0.13200
C2803       C  0.11473403  0.37473912  0.74855616    -0.11600
C2804       C  0.11234163  0.37577178  0.77227185    -0.13200
C2805       C  0.11043672  0.26469644  0.88264046    -0.11600
C2806       C  0.11324988  0.24096913  0.88108856    -0.13200
C2807       C  0.12297545  0.51476062  0.88882041    -0.11600
C2808       C  0.12253344  0.49095007  0.88786440    -0.13200
C2809       C  0.98254494  0.50763464  0.90078099    -0.11600
C2810       C  0.99992410  0.49219934  0.90170331    -0.13200
C2811       C  0.12021694  0.37908221  0.99807421    -0.11600
C2812       C  0.12109088  0.38070364  0.02182330    -0.13200
C2813       C  0.98235851  0.39228386  0.01297518    -0.11600
C2814       C  0.99846154  0.39462651  0.99646364    -0.13200
C2815       C  0.62733302  0.38211454  0.77218529    -0.11600
C2816       C  0.62656938  0.38260511  0.74840450    -0.13200
C2817       C  0.75927424  0.47796448  0.87326672    -0.11600
C2818       C  0.77500983  0.49465537  0.87590772    -0.13200
C2819       C  0.63129560  0.49216244  0.88280422    -0.11600
C2820       C  0.62958720  0.51586937  0.88121898    -0.13200
C2821       C  0.62892200  0.37596917  0.02160002    -0.11600
C2822       C  0.63111174  0.37742794  0.99791785    -0.13200
C2823       C  0.75841791  0.36729675  0.98511219    -0.11600
C2824       C  0.77485863  0.36853970  0.00134608    -0.13200
C2825       C  0.62686377  0.26586123  0.88738905    -0.11600
C2826       C  0.62633213  0.24202003  0.88740230    -0.13200
C2827       C  0.01029975  0.13040374  0.87949532    -0.11600
C2828       C  0.98666492  0.13259371  0.88115449    -0.13200
C2829       C  0.87204612  0.12931296  0.02165034    -0.11600
C2830       C  0.87355835  0.13082096  0.99790595    -0.13200
C2831       C  0.86683669  0.27590282  0.00469140    -0.11600
C2832       C  0.86529192  0.25919823  0.98873367    -0.13200
C2833       C  0.97108423  0.26535954  0.87718856    -0.11600
C2834       C  0.98454054  0.28408485  0.87859772    -0.13200
C2835       C  0.74988863  0.27007657  0.89470944    -0.11600
C2836       C  0.76609106  0.25343055  0.89617214    -0.13200
C2837       C  0.76088920  0.12801216  0.88543581    -0.11600
C2838       C  0.73713130  0.12696634  0.88708429    -0.13200
C2839       C  0.87808549  0.13165272  0.77179322    -0.11600
C2840       C  0.88087372  0.13018982  0.74813974    -0.13200
C2841       C  0.87169692  0.49128711  0.64066503    -0.11600
C2842       C  0.87019411  0.51502071  0.63858443    -0.13200
C2843       C  0.74915580  0.38827184  0.77723787    -0.11600
C2844       C  0.76517014  0.38904554  0.76052554    -0.13200
C2845       C  0.76026098  0.38032755  0.63596981    -0.11600
C2846       C  0.73648478  0.38190904  0.63495864    -0.13200
C2847       C  0.86282183  0.48006140  0.76810280    -0.11600
C2848       C  0.86464464  0.49640527  0.78441088    -0.13200
C2849       C  0.00964478  0.37533285  0.63808460    -0.11600
C2850       C  0.98599598  0.37705500  0.64049220    -0.13200
C2851       C  0.97132191  0.36959818  0.77181317    -0.11600
C2852       C  0.98652658  0.37402388  0.78860709    -0.13200
C2853       C  0.88050558  0.25610540  0.78071597    -0.11600
C2854       C  0.87999073  0.27205368  0.76387791    -0.13200
C2855       C  0.87820994  0.26520276  0.63924099    -0.11600
C2856       C  0.87964915  0.24146593  0.63805216    -0.13200
C2857       C  0.61689519  0.76500592  0.88197532    -0.11600
C2858       C  0.61944088  0.74138831  0.87994210    -0.13200
C2859       C  0.61513242  0.87359866  0.77096352    -0.11600
C2860       C  0.61693899  0.87210612  0.74717624    -0.13200
C2861       C  0.62383825  0.99090141  0.88848866    -0.11600
C2862       C  0.62433517  0.01470770  0.89010342    -0.13200
C2863       C  0.62296978  0.87820052  0.99730943    -0.11600
C2864       C  0.62322859  0.87993975  0.02105358    -0.13200
C2865       C  0.36819529  0.74125718  0.13221990    -0.11600
C2866       C  0.36900298  0.76512645  0.13133878    -0.13200
C2867       C  0.23638709  0.87696034  0.12948445    -0.11600
C2868       C  0.26006898  0.87863078  0.12777901    -0.13200
C2869       C  0.51047861  0.88182127  0.13586755    -0.11600
C2870       C  0.48667505  0.88043281  0.13509015    -0.13200
C2871       C  0.48308380  0.88834432  0.01133539    -0.11600
C2872       C  0.49924008  0.89035323  0.99476267    -0.13200
C2873       C  0.37493367  0.99204809  0.13151077    -0.11600
C2874       C  0.37625462  0.01582710  0.13275482    -0.13200
C2875       C  0.23619647  0.12033547  0.87913669    -0.11600
C2876       C  0.25997659  0.11821194  0.88037586    -0.13200
C2877       C  0.37052990  0.12251196  0.74759552    -0.11600
C2878       C  0.37238122  0.12029069  0.77132082    -0.13200
C2879       C  0.48660771  0.12702338  0.88610062    -0.11600
C2880       C  0.51042166  0.12785008  0.88716722    -0.13200
C2881       C  0.48415815  0.00508212  0.90115666    -0.11600
C2882       C  0.50152217  0.98954952  0.90108837    -0.13200
C2883       C  0.37655342  0.12720281  0.99789383    -0.11600
C2884       C  0.37826129  0.12861162  0.02163638    -0.13200
C2885       C  0.38967716  0.00125979  0.99415266    -0.11600
C2886       C  0.39053208  0.98357181  0.00923740    -0.13200
C2887       C  0.37570166  0.63832840  0.77163508    -0.11600
C2888       C  0.37827300  0.63573949  0.74802825    -0.13200
C2889       C  0.47258782  0.76540242  0.87672486    -0.11600
C2890       C  0.48814557  0.78246432  0.87692014    -0.13200
C2891       C  0.48675965  0.63504132  0.88000524    -0.11600
C2892       C  0.51049727  0.63308843  0.87943044    -0.13200
C2893       C  0.37373047  0.63127851  0.99763736    -0.11600
C2894       C  0.37183847  0.62990516  0.02134707    -0.13200
C2895       C  0.36595557  0.75681786  0.99313870    -0.11600
C2896       C  0.36698304  0.77401448  0.00851592    -0.13200
C2897       C  0.26082512  0.63061271  0.88699065    -0.11600
C2898       C  0.23702051  0.62941276  0.88762973    -0.13200
C2899       C  0.12714558  0.01440561  0.87899383    -0.11600
C2900       C  0.12991310  0.99070951  0.88099011    -0.13200
C2901       C  0.12827642  0.87425239  0.99651082    -0.11600
C2902       C  0.12644496  0.87319244  0.02028333    -0.13200
C2903       C  0.25769123  0.86710732  0.98612690    -0.11600
C2904       C  0.27477516  0.86857251  0.00176468    -0.13200
C2905       C  0.27615913  0.99200465  0.87982032    -0.11600
C2906       C  0.25996219  0.97573032  0.87727285    -0.13200
C2907       C  0.26561644  0.75442991  0.90310188    -0.11600
C2908       C  0.24829191  0.76970881  0.90027697    -0.13200
C2909       C  0.12264178  0.74090818  0.88627758    -0.11600
C2910       C  0.12390178  0.76462737  0.88479946    -0.13200
C2911       C  0.12984077  0.88195061  0.77027362    -0.11600
C2912       C  0.12934218  0.88353251  0.74653510    -0.13200
C2913       C  0.37452822  0.76541812  0.63998308    -0.11600
C2914       C  0.37670512  0.74180724  0.63822990    -0.13200
C2915       C  0.48631440  0.87272244  0.64049032    -0.11600
C2916       C  0.51004953  0.87137740  0.63861878    -0.13200
C2917       C  0.37954224  0.77583359  0.76686394    -0.11600
C2918       C  0.37895485  0.76070698  0.78438714    -0.13200
C2919       C  0.47453308  0.87049268  0.76934602    -0.11600
C2920       C  0.48984551  0.87317525  0.78651882    -0.13200
C2921       C  0.37053134  0.99107258  0.63921412    -0.11600
C2922       C  0.36934386  0.01483797  0.63790418    -0.13200
C2923       C  0.36587631  0.98179412  0.76728775    -0.11600
C2924       C  0.36708670  0.99581254  0.78567743    -0.13200
C2925       C  0.26798869  0.89082715  0.76339358    -0.11600
C2926       C  0.25160653  0.88787099  0.77949952    -0.13200
C2927       C  0.26039179  0.88272719  0.63648492    -0.11600
C2928       C  0.23677633  0.88492278  0.63394103    -0.13200
loop_ 
_geom_bond_atom_site_label_1 
_geom_bond_atom_site_label_2 
_geom_bond_distance 
_geom_bond_site_symmetry_2 
_ccdc_geom_bond_type 
C1           N19   1.376       .  A
C1           C38   1.429       .  S
C1         C2927   1.467       .  S
N2           N19   1.344       .  A
N2           N24   1.323       .  A
N2          Co39   2.196       .  S
C3           N28   1.333       .  A
C3           C41   1.446       .  S
C3           H48   1.081       .  S
H4           C45   1.082       .  S
C5           N29   1.340       .  A
C5            C9   1.455       .  S
C5           H34   1.082       .  S
Co6          N24   2.035       .  S
Co6          N14   2.056       .  S
Co6          N46   2.034       .  S
Co6          N22   2.062       .  S
Co6         Cl50   2.432       .  S
N7           C45   1.336       .  A
N7           N14   1.314       .  A
N7           Co8   2.058       .  S
Co8          N11   2.049       .  S
Co8          N28   2.048       .  S
Co8          N15   2.060       .  S
Co8         Cl50   2.464       .  S
C9           N47   1.341       .  A
C9         C2923   1.415       .  S
N10          N17   1.326       .  A
N10          N40   1.319       .  A
N10         Co43   2.040       .  S
N11          N29   1.314       .  A
N11          N47   1.318       .  A
N12          C41   1.344       .  A
N12          N22   1.322       .  A
H13          C38   1.080       .  S
N14          N35   1.320       .  A
N15          N33   1.314       .  A
N15          N20   1.320       .  A
C16          N20   1.344       .  A
C16          C44   1.452       .  S
C16        C2919   1.417       .  S
N17          C32   1.365       .  A
N17         Co39   2.187       .  S
C18          N46   1.331       .  A
C18          C21   1.430       .  S
C18          H52   1.080       .  S
C21          N42   1.373       .  A
C21        C2913   1.460       .  S
N22          N28   1.314       .  A
N23          C49   1.366       .  A
N23          N25   1.326       .  A
N23         Co39   2.195       .  S
N24          C38   1.331       .  A
N25          N53   1.319       .  A
N25         Co43   2.037       .  S
H26          C49   1.080       .  S
H27          C44   1.081       .  S
N29         Co43   2.068       .  S
N30          N42   1.342       .  A
N30          N46   1.323       .  A
N30         Co39   2.190       .  S
C31          N35   1.342       .  A
C31          C45   1.451       .  S
C31        C2925   1.411       .  S
C32          C51   1.494       .  S
C32          H36   1.080       .  S
N33          C44   1.339       .  A
N33         Co43   2.066       .  S
C37          N53   1.331       .  A
C37          C49   1.496       .  S
C37        C2915   1.467       .  S
Co39        Cl50   2.463       .  S
N40          C51   1.331       .  A
C41        C2917   1.409       .  S
Co43        Cl50   2.435       .  S
C51        C2921   1.465       .  S
C54          N72   1.344       .  A
C54          C91   1.451       .  S
C54        C2906   1.417       .  S
N55          N72   1.321       .  A
N55          N77   1.314       .  A
N55         Co92   2.062       .  S
C56          N81   1.342       .  A
C56          C94   1.452       .  S
C56         H101   1.080       .  S
H57          C98   1.080       .  S
C58          N82   1.365       .  A
C58          C62   1.494       .  S
C58          H87   1.079       .  S
Co59         N77   2.059       .  S
Co59         N67   2.053       .  S
Co59         N99   2.055       .  S
Co59         N75   2.053       .  S
Co59       Cl103   2.464       .  S
N60          C98   1.339       .  A
N60          N67   1.315       .  A
N60         Co61   2.060       .  S
Co61         N64   2.038       .  S
Co61         N81   2.068       .  S
Co61         N68   2.029       .  S
Co61       Cl103   2.440       .  S
C62         N100   1.329       .  A
C62        C2911   1.462       .  S
N63          N70   1.323       .  A
N63          N93   1.344       .  A
N63         Co96   2.200       .  S
N64          N82   1.326       .  A
N64         N100   1.318       .  A
N65          C94   1.340       .  A
N65          N75   1.318       .  A
H66          C91   1.083       .  S
N67          N88   1.319       .  A
N68          N86   1.325       .  A
N68          N73   1.318       .  A
C69          N73   1.328       .  A
C69          C97   1.496       .  S
C69        C2910   1.463       .  S
N70          C85   1.334       .  A
N70         Co92   2.045       .  S
C71          N99   1.336       .  A
C71          C74   1.450       .  S
C71         H105   1.083       .  S
C74          N95   1.346       .  A
C74        C2903   1.421       .  S
N75          N81   1.315       .  A
N76         C102   1.330       .  A
N76          N78   1.324       .  A
N76         Co92   2.036       .  S
N77          C91   1.336       .  A
N78         N106   1.344       .  A
N78         Co96   2.197       .  S
H79         C102   1.081       .  S
H80          C97   1.079       .  S
N82         Co96   2.190       .  S
N83          N95   1.323       .  A
N83          N99   1.314       .  A
N83         Co92   2.071       .  S
C84          N88   1.341       .  A
C84          C98   1.447       .  S
C84        C2926   1.411       .  S
C85         C104   1.434       .  S
C85          H89   1.081       .  S
N86          C97   1.366       .  A
N86         Co96   2.195       .  S
C90         N106   1.377       .  A
C90         C102   1.428       .  S
C90        C2901   1.467       .  S
Co92       Cl103   2.434       .  S
N93         C104   1.377       .  A
C94        C2908   1.414       .  S
Co96       Cl103   2.464       .  S
C104       C2900   1.474       .  S
C107        N125   1.338       .  A
C107        C144   1.450       .  S
C107       C2918   1.410       .  S
N108        N125   1.319       .  A
N108        N130   1.314       .  A
N108       Co145   2.046       .  S
C109        N134   1.338       .  A
C109        C147   1.450       .  S
C109        H154   1.081       .  S
H110        C151   1.082       .  S
C111        N135   1.365       .  A
C111        C115   1.494       .  S
C111        H140   1.080       .  S
Co112       N130   2.059       .  S
Co112       N120   2.059       .  S
Co112       N152   2.062       .  S
Co112       N128   2.052       .  S
Co112      Cl156   2.473       .  S
N113        C151   1.338       .  A
N113        N120   1.316       .  A
N113       Co114   2.066       .  S
Co114       N117   2.036       .  S
Co114       N134   2.061       .  S
Co114       N121   2.043       .  S
Co114      Cl156   2.429       .  S
C115        N153   1.331       .  A
C115       C2891   1.465       .  S
N116        N123   1.323       .  A
N116        N146   1.343       .  A
N116       Co149   2.194       .  S
N117        N135   1.326       .  A
N117        N153   1.319       .  A
N118        C147   1.342       .  A
N118        N128   1.318       .  A
H119        C144   1.081       .  S
N120        N141   1.320       .  A
N121        N139   1.326       .  A
N121        N126   1.319       .  A
C122        N126   1.331       .  A
C122        C150   1.495       .  S
C122       C2893   1.464       .  S
N123        C138   1.334       .  A
N123       Co145   2.047       .  S
C124        N152   1.339       .  A
C124        C127   1.455       .  S
C124        H158   1.081       .  S
C127        N148   1.342       .  A
C127       C2907   1.415       .  S
N128        N134   1.314       .  A
N129        C155   1.327       .  A
N129        N131   1.321       .  A
N129       Co145   2.017       .  S
N130        C144   1.337       .  A
N131        N159   1.346       .  A
N131       Co149   2.204       .  S
H132        C155   1.079       .  S
H133        C150   1.081       .  S
N135       Co149   2.190       .  S
N136        N148   1.320       .  A
N136        N152   1.314       .  A
N136       Co145   2.062       .  S
C137        N141   1.343       .  A
C137        C151   1.450       .  S
C137       C2889   1.416       .  S
C138        C157   1.435       .  S
C138        H142   1.079       .  S
N139        C150   1.365       .  A
N139       Co149   2.188       .  S
C143        N159   1.379       .  A
C143        C155   1.422       .  S
C143       C2897   1.465       .  S
Co145      Cl156   2.426       .  S
N146        C157   1.375       .  A
C147       C2895   1.410       .  S
Co149      Cl156   2.469       .  S
C157       C2887   1.471       .  S
C160        N178   1.339       .  A
C160        C197   1.453   1_545  S
C160       C2924   1.416   1_545  S
N161        N178   1.320       .  A
N161        N183   1.315       .  A
N161       Co198   2.051       .  S
C162        N187   1.342       .  A
C162        C200   1.455       .  S
C162        H207   1.080       .  S
H163        C204   1.082       .  S
C164        N188   1.366       .  A
C164        C168   1.495       .  S
C164        H193   1.080       .  S
Co165       N183   2.067       .  S
Co165       N173   2.061       .  S
Co165       N205   2.062       .  S
Co165       N181   2.059       .  S
Co165      Cl209   2.469       .  S
N166        C204   1.339       .  A
N166        N173   1.316       .  A
N166       Co167   2.064       .  S
Co167       N170   2.051       .  S
Co167       N187   2.075       .  S
Co167       N174   2.037       .  S
Co167      Cl209   2.439       .  S
C168        N206   1.334       .  A
C168       C2876   1.473       .  S
N169        N176   1.323       .  A
N169        N199   1.345       .  A
N169       Co202   2.203       .  S
N170        N188   1.327       .  A
N170        N206   1.322       .  A
N171        C200   1.342       .  A
N171        N181   1.319       .  A
H172        C197   1.081       .  S
N173        N194   1.320   1_545  A
N174        N192   1.326       .  A
N174        N179   1.319       .  A
C175        N179   1.330       .  A
C175        C203   1.497       .  S
C175       C2883   1.467       .  S
N176        C191   1.333       .  A
N176       Co198   2.038       .  S
C177        N205   1.337       .  A
C177        C180   1.451       .  S
C177        H211   1.081   1_545  S
C180        N201   1.343       .  A
C180       C2881   1.417       .  S
N181        N187   1.315       .  A
N182        C208   1.328       .  A
N182        N184   1.322       .  A
N182       Co198   2.024       .  S
N183        C197   1.339   1_545  A
N184        N212   1.346       .  A
N184       Co202   2.204       .  S
H185        C208   1.079       .  S
H186        C203   1.081       .  S
N188       Co202   2.198       .  S
N189        N201   1.322       .  A
N189        N205   1.314       .  A
N189       Co198   2.061       .  S
C190        N194   1.343   1_545  A
C190        C204   1.449       .  S
C190       C2905   1.417   1_545  S
C191        C210   1.431       .  S
C191        H195   1.080       .  S
N192        C203   1.367       .  A
N192       Co202   2.197       .  S
C196        N212   1.379       .  A
C196        C208   1.423       .  S
C196       C2879   1.466       .  S
Co198      Cl209   2.434       .  S
N199        C210   1.377       .  A
C200       C2885   1.418       .  S
Co202      Cl209   2.467       .  S
C210       C2878   1.472       .  S
C213        N231   1.344       .  A
C213        C250   1.450       .  S
C213       C2904   1.421       .  S
N214        N231   1.323       .  A
N214        N236   1.315       .  A
N214       Co251   2.065       .  S
C215        N240   1.340       .  A
C215        C253   1.449       .  S
C215        H260   1.081       .  S
H216        C257   1.079       .  S
C217        N241   1.369       .  A
C217        C221   1.499       .  S
C217        H246   1.079       .  S
Co218       N236   2.064       .  S
Co218       N226   2.066       .  S
Co218       N258   2.070       .  S
Co218       N234   2.059       .  S
Co218      Cl262   2.472       .  S
N219        C257   1.336       .  A
N219        N226   1.315       .  A
N219       Co220   2.051       .  S
Co220       N223   2.040       .  S
Co220       N240   2.064       .  S
Co220       N227   2.030       .  S
Co220      Cl262   2.433       .  S
C221        N259   1.330       .  A
C221       C2866   1.472       .  S
N222        N229   1.324       .  A
N222        N252   1.343       .  A
N222       Co255   2.199       .  S
N223        N241   1.325       .  A
N223        N259   1.319       .  A
N224        C253   1.343       .  A
N224        N234   1.319       .  A
H225        C250   1.082   1_556  S
N226        N247   1.321       .  A
N227        N245   1.325       .  A
N227        N232   1.318       .  A
C228        N232   1.328       .  A
C228        C256   1.500       .  S
C228       C2870   1.469       .  S
N229        C244   1.330       .  A
N229       Co251   2.033       .  S
C230        N258   1.339       .  A
C230        C233   1.455       .  S
C230        H264   1.082   1_554  S
C233        N254   1.341       .  A
C233       C2886   1.419       .  S
N234        N240   1.315       .  A
N235        C261   1.330       .  A
N235        N237   1.323       .  A
N235       Co251   2.036       .  S
N236        C250   1.337       .  A
N237        N265   1.345       .  A
N237       Co255   2.199       .  S
H238        C261   1.079       .  S
H239        C256   1.080       .  S
N241       Co255   2.199       .  S
N242        N254   1.321       .  A
N242        N258   1.315       .  A
N242       Co251   2.058       .  S
C243        N247   1.345       .  A
C243        C257   1.442       .  S
C243       C2896   1.411       .  S
C244        C263   1.428       .  S
C244        H248   1.079       .  S
N245        C256   1.369       .  A
N245       Co255   2.201       .  S
C249        N265   1.377       .  A
C249        C261   1.427       .  S
C249       C2873   1.467       .  S
Co251      Cl262   2.429       .  S
N252        C263   1.376       .  A
C253       C2871   1.416       .  S
Co255      Cl262   2.471       .  S
C263       C2868   1.465       .  S
C266        N284   1.343       .  A
C266        C303   1.449       .  S
C266       C2890   1.416       .  S
N267        N284   1.321       .  A
N267        N289   1.316       .  A
N267       Co304   2.060       .  S
C268        N293   1.340       .  A
C268        C306   1.451       .  S
C268        H313   1.080       .  S
H269        C310   1.081       .  S
C270        N294   1.366       .  A
C270        C274   1.495       .  S
C270        H299   1.079       .  S
Co271       N289   2.061       .  S
Co271       N279   2.063       .  S
Co271       N311   2.062       .  S
Co271       N287   2.060       .  S
Co271      Cl315   2.461       .  S
N272        C310   1.338       .  A
N272        N279   1.316       .  A
N272       Co273   2.062       .  S
Co273       N276   2.051       .  S
Co273       N293   2.072       .  S
Co273       N280   2.031       .  S
Co273      Cl315   2.437       .  S
C274        N312   1.335       .  A
C274       C2859   1.473       .  S
N275        N282   1.323       .  A
N275        N305   1.342       .  A
N275       Co308   2.191       .  S
N276        N294   1.326       .  A
N276        N312   1.322       .  A
N277        C306   1.344       .  A
N277        N287   1.320       .  A
H278        C303   1.083       .  S
N279        N300   1.321       .  A
N280        N298   1.324       .  A
N280        N285   1.317       .  A
C281        N285   1.328       .  A
C281        C309   1.500       .  S
C281       C2861   1.468       .  S
N282        C297   1.332       .  A
N282       Co304   2.039       .  S
C283        N311   1.337       .  A
C283        C286   1.453       .  S
C283        H317   1.083       .  S
C286        N307   1.343       .  A
C286       C2872   1.417       .  S
N287        N293   1.315       .  A
N288        C314   1.327       .  A
N288        N290   1.322       .  A
N288       Co304   2.026       .  S
N289        C303   1.336       .  A
N290        N318   1.344       .  A
N290       Co308   2.197       .  S
H291        C314   1.080       .  S
H292        C309   1.079       .  S
N294       Co308   2.194       .  S
N295        N307   1.322       .  A
N295        N311   1.314       .  A
N295       Co304   2.066       .  S
C296        N300   1.343       .  A
C296        C310   1.447       .  S
C296       C2920   1.418       .  S
C297        C316   1.432       .  S
C297        H301   1.080       .  S
N298        C309   1.368       .  A
N298       Co308   2.196       .  S
C302        N318   1.377       .  A
C302        C314   1.423       .  S
C302       C2863   1.462       .  S
Co304      Cl315   2.429       .  S
N305        C316   1.374       .  A
C306       C2882   1.416       .  S
Co308      Cl315   2.477       .  S
C316       C2857   1.466       .  S
C319        N337   1.343       .  A
C319        C356   1.447       .  S
C319       C2854   1.413       .  S
N320        N337   1.320       .  A
N320        N342   1.314       .  A
N320       Co357   2.058       .  S
C321        N346   1.367       .  A
C321        C359   1.498       .  S
C321        H366   1.080       .  S
H322        C363   1.080       .  S
C323        N347   1.331       .  A
C323        C327   1.431       .  S
C323        H352   1.081       .  S
Co324       N342   2.059       .  S
Co324       N332   2.038       .  S
Co324       N364   2.062       .  S
Co324       N340   2.033       .  S
Co324      Cl368   2.429       .  S
N325        C363   1.365       .  A
N325        N332   1.326       .  A
N325       Co326   2.189       .  S
Co326       N329   2.190       .  S
Co326       N346   2.194       .  S
Co326       N333   2.195       .  S
Co326      Cl368   2.473       .  S
C327        N365   1.374       .  A
C327       C2850   1.465       .  S
N328        N335   1.314       .  A
N328        N358   1.320       .  A
N328       Co361   2.062       .  S
N329        N347   1.323       .  A
N329        N365   1.343       .  A
N330        C359   1.329       .  A
N330        N340   1.318       .  A
H331        C356   1.081       .  S
N332        N353   1.318       .  A
N333        N351   1.324       .  A
N333        N338   1.344       .  A
C334        N338   1.376       .  A
C334        C362   1.430       .  S
C334       C2841   1.468       .  S
N335        C350   1.335       .  A
N335       Co357   2.054       .  S
C336        N364   1.338       .  A
C336        C339   1.447       .  S
C336        H370   1.080       .  S
C339        N360   1.343       .  A
C339       C2844   1.411       .  S
N340        N346   1.325       .  A
N341        C367   1.337       .  A
N341        N343   1.314       .  A
N341       Co357   2.060       .  S
N342        C356   1.338       .  A
N343        N371   1.321       .  A
N343       Co361   2.061       .  S
H344        C367   1.083       .  S
H345        C362   1.081       .  S
N347       Co361   2.038       .  S
N348        N360   1.319       .  A
N348        N364   1.315       .  A
N348       Co357   2.055       .  S
C349        N353   1.330       .  A
C349        C363   1.494       .  S
C349       C2855   1.463       .  S
C350        C369   1.451       .  S
C350        H354   1.083       .  S
N351        C362   1.331       .  A
N351       Co361   2.041       .  S
C355        N371   1.343       .  A
C355        C367   1.452       .  S
C355       C2847   1.417       .  S
Co357      Cl368   2.473       .  S
N358        C369   1.344       .  A
C359       C2845   1.467       .  S
Co361      Cl368   2.423       .  S
C369       C2851   1.412       .  S
C372        N390   1.342       .  A
C372        C409   1.449       .  S
C372       C2853   1.413       .  S
N373        N390   1.321       .  A
N373        N395   1.314       .  A
N373       Co410   2.053       .  S
C374        N399   1.338       .  A
C374        C412   1.450       .  S
C374        H419   1.082       .  S
H375        C416   1.083       .  S
C376        N400   1.363       .  A
C376        C380   1.491       .  S
C376        H405   1.080       .  S
Co377       N395   2.058       .  S
Co377       N385   2.050       .  S
Co377       N417   2.053       .  S
Co377       N393   2.059       .  S
Co377      Cl421   2.467       .  S
N378        C416   1.340       .  A
N378        N385   1.314       .  A
N378       Co379   2.071       .  S
Co379       N382   2.041       .  S
Co379       N399   2.063       .  S
Co379       N386   2.045       .  S
Co379      Cl421   2.433       .  S
C380        N418   1.332       .  A
C380       C2828   1.463       .  S
N381        N388   1.323       .  A
N381        N411   1.344       .  A
N381       Co414   2.195       .  S
N382        N400   1.326       .  A
N382        N418   1.320       .  A
N383        C412   1.344       .  A
N383        N393   1.320       .  A
H384        C409   1.081       .  S
N385        N406   1.317       .  A
N386        N404   1.327       .  A
N386        N391   1.320       .  A
C387        N391   1.331       .  A
C387        C415   1.495       .  S
C387       C2830   1.466       .  S
N388        C403   1.331       .  A
N388       Co410   2.039       .  S
C389        N417   1.335       .  A
C389        C392   1.450       .  S
C389        H423   1.081       .  S
C392        N413   1.344       .  A
C392       C2836   1.415       .  S
N393        N399   1.314       .  A
N394        C420   1.328       .  A
N394        N396   1.322       .  A
N394       Co410   2.020       .  S
N395        C409   1.336       .  A
N396        N424   1.345       .  A
N396       Co414   2.205       .  S
H397        C420   1.079       .  S
H398        C415   1.081       .  S
N400       Co414   2.186       .  S
N401        N413   1.322       .  A
N401        N417   1.314       .  A
N401       Co410   2.065       .  S
C402        N406   1.340       .  A
C402        C416   1.456       .  S
C402       C2833   1.415       .  S
C403        C422   1.430       .  S
C403        H407   1.079       .  S
N404        C415   1.365       .  A
N404       Co414   2.192       .  S
C408        N424   1.379       .  A
C408        C420   1.423       .  S
C408       C2837   1.465       .  S
Co410      Cl421   2.433       .  S
N411        C422   1.376       .  A
C412       C2832   1.416       .  S
Co414      Cl421   2.466       .  S
C422       C2839   1.467       .  S
C425        N443   1.343       .  A
C425        C462   1.452       .  S
C425       C2817   1.416       .  S
N426        N443   1.320       .  A
N426        N448   1.314       .  A
N426       Co463   2.064       .  S
C427        N452   1.339       .  A
C427        C465   1.446       .  S
C427        H472   1.080       .  S
H428        C469   1.079       .  S
C429        N453   1.366       .  A
C429        C433   1.496       .  S
C429        H458   1.079       .  S
Co430       N448   2.061       .  S
Co430       N438   2.058       .  S
Co430       N470   2.058       .  S
Co430       N446   2.063       .  S
Co430      Cl474   2.472       .  S
N431        C469   1.338       .  A
N431        N438   1.314       .  A
N431       Co432   2.056       .  S
Co432       N435   2.031       .  S
Co432       N452   2.059       .  S
Co432       N439   2.026       .  S
Co432      Cl474   2.428       .  S
C433        N471   1.327       .  A
C433       C2815   1.461       .  S
N434        N441   1.323       .  A
N434        N464   1.343       .  A
N434       Co467   2.194       .  S
N435        N453   1.324       .  A
N435        N471   1.316       .  A
N436        C465   1.344       .  A
N436        N446   1.320       .  A
H437        C462   1.084       .  S
N438        N459   1.320       .  A
N439        N457   1.324       .  A
N439        N444   1.316       .  A
C440        N444   1.326       .  A
C440        C468   1.500       .  S
C440       C2825   1.465       .  S
N441        C456   1.330       .  A
N441       Co463   2.035       .  S
C442        N470   1.336       .  A
C442        C445   1.451       .  S
C442        H476   1.083       .  S
C445        N466   1.343       .  A
C445       C2823   1.415       .  S
N446        N452   1.314       .  A
N447        C473   1.332       .  A
N447        N449   1.324       .  A
N447       Co463   2.042       .  S
N448        C462   1.337       .  A
N449        N477   1.342       .  A
N449       Co467   2.188       .  S
H450        C473   1.080       .  S
H451        C468   1.079       .  S
N453       Co467   2.187       .  S
N454        N466   1.321       .  A
N454        N470   1.314       .  A
N454       Co463   2.059       .  S
C455        N459   1.343       .  A
C455        C469   1.445       .  S
C455       C2843   1.411       .  S
C456        C475   1.428       .  S
C456        H460   1.081       .  S
N457        C468   1.368       .  A
N457       Co467   2.197       .  S
C461        N477   1.374       .  A
C461        C473   1.431       .  S
C461       C2822   1.464       .  S
Co463      Cl474   2.423       .  S
N464        C475   1.375       .  A
C465       C2835   1.415       .  S
Co467      Cl474   2.471       .  S
C475       C2819   1.463       .  S
C478        N496   1.339   1_655  A
C478        C515   1.453       .  S
C478       C2834   1.417       .  S
N479        N496   1.319       .  A
N479        N501   1.316       .  A
N479       Co516   2.053       .  S
C480        N505   1.340       .  A
C480        C518   1.450       .  S
C480        H525   1.080       .  S
H481        C522   1.080       .  S
C482        N506   1.364       .  A
C482        C486   1.492       .  S
C482        H511   1.079       .  S
Co483       N501   2.068       .  S
Co483       N491   2.059       .  S
Co483       N523   2.059       .  S
Co483       N499   2.061       .  S
Co483      Cl527   2.464       .  S
N484        C522   1.337       .  A
N484        N491   1.316       .  A
N484       Co485   2.056       .  S
Co485       N488   2.050       .  S
Co485       N505   2.070       .  S
Co485       N492   2.024       .  S
Co485      Cl527   2.433       .  S
C486        N524   1.335       .  A
C486       C2804   1.469       .  S
N487        N494   1.323       .  A
N487        N517   1.344       .  A
N487       Co520   2.203       .  S
N488        N506   1.326       .  A
N488        N524   1.321       .  A
N489        C518   1.344       .  A
N489        N499   1.320       .  A
H490        C515   1.083       .  S
N491        N512   1.319   1_455  A
N492        N510   1.324       .  A
N492        N497   1.316       .  A
C493        N497   1.326       .  A
C493        C521   1.500       .  S
C493       C2808   1.465       .  S
N494        C509   1.335       .  A
N494       Co516   2.042       .  S
C495        N523   1.337       .  A
C495        C498   1.452       .  S
C495        H529   1.082   1_455  S
C498        N519   1.342       .  A
C498       C2814   1.413   1_455  S
N499        N505   1.315       .  A
N500        C526   1.328       .  A
N500        N502   1.321       .  A
N500       Co516   2.024       .  S
N501        C515   1.339   1_455  A
N502        N530   1.344       .  A
N502       Co520   2.194       .  S
H503        C526   1.079       .  S
H504        C521   1.080       .  S
N506       Co520   2.187       .  S
N507        N519   1.320       .  A
N507        N523   1.314       .  A
N507       Co516   2.061       .  S
C508        N512   1.342   1_455  A
C508        C522   1.445       .  S
C508       C2852   1.412   1_455  S
C509        C528   1.435       .  S
C509        H513   1.080       .  S
N510        C521   1.368       .  A
N510       Co520   2.197       .  S
C514        N530   1.377       .  A
C514        C526   1.423       .  S
C514       C2811   1.463       .  S
Co516      Cl527   2.428       .  S
N517        C528   1.377       .  A
C518       C2810   1.414   1_455  S
Co520      Cl527   2.478       .  S
C528       C2805   1.475       .  S
C531        N549   1.344       .  A
C531        C568   1.448       .  S
C531       C2824   1.415       .  S
N532        N549   1.322       .  A
N532        N554   1.315       .  A
N532       Co569   2.063       .  S
C533        N558   1.339       .  A
C533        C571   1.447       .  S
C533        H578   1.079       .  S
H534        C575   1.081       .  S
C535        N559   1.367       .  A
C535        C539   1.498       .  S
C535        H564   1.079       .  S
Co536       N554   2.058       .  S
Co536       N544   2.060       .  S
Co536       N576   2.062       .  S
Co536       N552   2.059       .  S
Co536      Cl580   2.459       .  S
N537        C575   1.338       .  A
N537        N544   1.315       .  A
N537       Co538   2.061       .  S
Co538       N541   2.039       .  S
Co538       N558   2.063       .  S
Co538       N545   2.031       .  S
Co538      Cl580   2.435       .  S
C539        N577   1.331       .  A
C539       C2793   1.471       .  S
N540        N547   1.323       .  A
N540        N570   1.342       .  A
N540       Co573   2.189       .  S
N541        N559   1.325       .  A
N541        N577   1.320       .  A
N542        C571   1.343       .  A
N542        N552   1.319       .  A
H543        C568   1.081   1_556  S
N544        N565   1.320       .  A
N545        N563   1.324       .  A
N545        N550   1.317       .  A
C546        N550   1.328       .  A
C546        C574   1.499       .  S
C546       C2801   1.467       .  S
N547        C562   1.330       .  A
N547       Co569   2.035       .  S
C548        N576   1.337       .  A
C548        C551   1.451       .  S
C548        H582   1.083   1_554  S
C551        N572   1.343       .  A
C551       C2799   1.418       .  S
N552        N558   1.315       .  A
N553        C579   1.329       .  A
N553        N555   1.323       .  A
N553       Co569   2.031       .  S
N554        C568   1.335       .  A
N555        N583   1.345       .  A
N555       Co573   2.200       .  S
H556        C579   1.079       .  S
H557        C574   1.080       .  S
N559       Co573   2.200       .  S
N560        N572   1.322       .  A
N560        N576   1.315       .  A
N560       Co569   2.063       .  S
C561        N565   1.343       .  A
C561        C575   1.448       .  S
C561       C2831   1.416       .  S
C562        C581   1.429       .  S
C562        H566   1.080       .  S
N563        C574   1.368       .  A
N563       Co573   2.195       .  S
C567        N583   1.378       .  A
C567        C579   1.426       .  S
C567       C2797   1.466       .  S
Co569      Cl580   2.428       .  S
N570        C581   1.374       .  A
C571       C2813   1.413       .  S
Co573      Cl580   2.479       .  S
C581       C2796   1.462       .  S
C584        N602   1.345       .  A
C584        C621   1.446       .  S
C584       C2848   1.417       .  S
N585        N602   1.323       .  A
N585        N607   1.316       .  A
N585       Co622   2.067       .  S
C586        N611   1.340       .  A
C586        C624   1.451       .  S
C586        H631   1.082       .  S
H587        C628   1.083       .  S
C588        N612   1.365       .  A
C588        C592   1.494       .  S
C588        H617   1.080       .  S
Co589       N607   2.057       .  S
Co589       N597   2.057       .  S
Co589       N629   2.057       .  S
Co589       N605   2.059       .  S
Co589      Cl633   2.458       .  S
N590        C628   1.340       .  A
N590        N597   1.316       .  A
N590       Co591   2.066       .  S
Co591       N594   2.045       .  S
Co591       N611   2.069       .  S
Co591       N598   2.035       .  S
Co591      Cl633   2.438       .  S
C592        N630   1.333       .  A
C592       C2785   1.470       .  S
N593        N600   1.323       .  A
N593        N623   1.343       .  A
N593       Co626   2.195       .  S
N594        N612   1.326       .  A
N594        N630   1.321       .  A
N595        C624   1.343       .  A
N595        N605   1.320       .  A
H596        C621   1.081       .  S
N597        N618   1.319       .  A
N598        N616   1.325       .  A
N598        N603   1.318       .  A
C599        N603   1.329       .  A
C599        C627   1.498       .  S
C599       C2791   1.468       .  S
N600        C615   1.331       .  A
N600       Co622   2.034       .  S
C601        N629   1.336       .  A
C601        C604   1.449       .  S
C601        H635   1.081       .  S
C604        N625   1.342       .  A
C604       C2809   1.414       .  S
N605        N611   1.315       .  A
N606        C632   1.331       .  A
N606        N608   1.322       .  A
N606       Co622   2.035       .  S
N607        C621   1.335       .  A
N608        N636   1.345       .  A
N608       Co626   2.200       .  S
H609        C632   1.079       .  S
H610        C627   1.081       .  S
N612       Co626   2.193       .  S
N613        N625   1.322       .  A
N613        N629   1.315       .  A
N613       Co622   2.062       .  S
C614        N618   1.341       .  A
C614        C628   1.451       .  S
C614       C2818   1.416       .  S
C615        C634   1.430       .  S
C615        H619   1.079       .  S
N616        C627   1.367       .  A
N616       Co626   2.194       .  S
C620        N636   1.378       .  A
C620        C632   1.428       .  S
C620       C2789   1.469       .  S
Co622      Cl633   2.434       .  S
N623        C634   1.375       .  A
C624       C2800   1.417       .  S
Co626      Cl633   2.475       .  S
C634       C2787   1.464       .  S
C637        N655   1.376       .  A
C637        C674   1.430       .  S
C637       C2783   1.468       .  S
N638        N655   1.344       .  A
N638        N660   1.323       .  A
N638       Co675   2.198       .  S
C639        N664   1.333       .  A
C639        C677   1.447       .  S
C639        H684   1.081       .  S
H640        C681   1.082       .  S
C641        N665   1.340       .  A
C641        C645   1.454       .  S
C641        H670   1.081       .  S
Co642       N660   2.039       .  S
Co642       N650   2.057       .  S
Co642       N682   2.035       .  S
Co642       N658   2.061       .  S
Co642      Cl686   2.431       .  S
N643        C681   1.336       .  A
N643        N650   1.314       .  A
N643       Co644   2.059       .  S
Co644       N647   2.053       .  S
Co644       N664   2.049       .  S
Co644       N651   2.058       .  S
Co644      Cl686   2.467       .  S
C645        N683   1.343       .  A
C645       C2774   1.417       .  S
N646        N653   1.326       .  A
N646        N676   1.319       .  A
N646       Co679   2.041       .  S
N647        N665   1.315       .  A
N647        N683   1.319       .  A
N648        C677   1.344       .  A
N648        N658   1.321       .  A
H649        C674   1.080       .  S
N650        N671   1.321       .  A
N651        N669   1.314       .  A
N651        N656   1.320       .  A
C652        N656   1.344       .  A
C652        C680   1.451       .  S
C652       C2775   1.415       .  S
N653        C668   1.366       .  A
N653       Co675   2.190       .  S
C654        N682   1.331       .  A
C654        C657   1.430       .  S
C654        H688   1.080       .  S
C657        N678   1.375       .  A
C657       C2779   1.465       .  S
N658        N664   1.314       .  A
N659        C685   1.366       .  A
N659        N661   1.325       .  A
N659       Co675   2.189       .  S
N660        C674   1.331       .  A
N661        N689   1.320       .  A
N661       Co679   2.045       .  S
H662        C685   1.080       .  S
H663        C680   1.081       .  S
N665       Co679   2.071       .  S
N666        N678   1.343       .  A
N666        N682   1.322       .  A
N666       Co675   2.192       .  S
C667        N671   1.342       .  A
C667        C681   1.451       .  S
C667       C2782   1.413       .  S
C668        C687   1.495       .  S
C668        H672   1.080       .  S
N669        C680   1.338       .  A
N669       Co679   2.063       .  S
C673        N689   1.332       .  A
C673        C685   1.495       .  S
C673       C2771   1.467       .  S
Co675      Cl686   2.468       .  S
N676        C687   1.332       .  A
C677       C2777   1.408       .  S
Co679      Cl686   2.431       .  S
C687       C2769   1.468       .  S
C690        N708   1.338       .  A
C690        C727   1.448       .  S
C690       C2778   1.410       .  S
N691        N708   1.319       .  A
N691        N713   1.315       .  A
N691       Co728   2.047       .  S
C692        N717   1.338       .  A
C692        C730   1.449       .  S
C692        H737   1.080       .  S
H693        C734   1.082       .  S
C694        N718   1.365       .  A
C694        C698   1.494       .  S
C694        H723   1.080       .  S
Co695       N713   2.058       .  S
Co695       N703   2.056       .  S
Co695       N735   2.055       .  S
Co695       N711   2.061       .  S
Co695      Cl739   2.457       .  S
N696        C734   1.341       .  A
N696        N703   1.316       .  A
N696       Co697   2.075       .  S
Co697       N700   2.033       .  S
Co697       N717   2.060       .  S
Co697       N704   2.041       .  S
Co697      Cl739   2.434       .  S
C698        N736   1.331       .  A
C698       C2763   1.465       .  S
N699        N706   1.323       .  A
N699        N729   1.344       .  A
N699       Co732   2.196       .  S
N700        N718   1.325       .  A
N700        N736   1.319       .  A
N701        C730   1.345       .  A
N701        N711   1.320       .  A
H702        C727   1.081       .  S
N703        N724   1.319       .  A
N704        N722   1.326       .  A
N704        N709   1.318       .  A
C705        N709   1.329       .  A
C705        C733   1.495       .  S
C705       C2761   1.464       .  S
N706        C721   1.334       .  A
N706       Co728   2.046       .  S
C707        N735   1.336       .  A
C707        C710   1.452       .  S
C707        H741   1.081       .  S
C710        N731   1.341       .  A
C710       C2757   1.412       .  S
N711        N717   1.314       .  A
N712        C738   1.328       .  A
N712        N714   1.320       .  A
N712       Co728   2.018       .  S
N713        C727   1.336       .  A
N714        N742   1.347       .  A
N714       Co732   2.212       .  S
H715        C738   1.079       .  S
H716        C733   1.081       .  S
N718       Co732   2.193       .  S
N719        N731   1.320       .  A
N719        N735   1.315       .  A
N719       Co728   2.062       .  S
C720        N724   1.341       .  A
C720        C734   1.455       .  S
C720       C2766   1.418       .  S
C721        C740   1.433       .  S
C721        H725   1.079       .  S
N722        C733   1.366       .  A
N722       Co732   2.189       .  S
C726        N742   1.382       .  A
C726        C738   1.422       .  S
C726       C2755   1.472       .  S
Co728      Cl739   2.428       .  S
N729        C740   1.375       .  A
C730       C2759   1.415       .  S
Co732      Cl739   2.475       .  S
C740       C2767   1.471       .  S
C743        N761   1.343       .  A
C743        C780   1.451       .  S
C743       C2751   1.417       .  S
N744        N761   1.321       .  A
N744        N766   1.314       .  A
N744       Co781   2.061       .  S
C745        N770   1.340       .  A
C745        C783   1.450       .  S
C745        H790   1.080       .  S
H746        C787   1.081       .  S
C747        N771   1.366       .  A
C747        C751   1.496       .  S
C747        H776   1.079       .  S
Co748       N766   2.056       .  S
Co748       N756   2.058       .  S
Co748       N788   2.059       .  S
Co748       N764   2.051       .  S
Co748      Cl792   2.466       .  S
N749        C787   1.339       .  A
N749        N756   1.315       .  A
N749       Co750   2.059       .  S
Co750       N753   2.037       .  S
Co750       N770   2.064       .  S
Co750       N757   2.031       .  S
Co750      Cl792   2.436       .  S
C751        N789   1.330       .  A
C751       C2754   1.466       .  S
N752        N759   1.324       .  A
N752        N782   1.343       .  A
N752       Co785   2.190       .  S
N753        N771   1.325       .  A
N753        N789   1.319       .  A
N754        C783   1.341       .  A
N754        N764   1.318       .  A
H755        C780   1.083       .  S
N756        N777   1.319       .  A
N757        N775   1.325       .  A
N757        N762   1.317       .  A
C758        N762   1.328       .  A
C758        C786   1.495       .  S
C758       C2748   1.462       .  S
N759        C774   1.333       .  A
N759       Co781   2.047       .  S
C760        N788   1.336       .  A
C760        C763   1.451       .  S
C760        H794   1.083       .  S
C763        N784   1.346       .  A
C763       C2743   1.421       .  S
N764        N770   1.315       .  A
N765        C791   1.329       .  A
N765        N767   1.323       .  A
N765       Co781   2.032       .  S
N766        C780   1.336       .  A
N767        N795   1.344       .  A
N767       Co785   2.194       .  S
H768        C791   1.081       .  S
H769        C786   1.079       .  S
N771       Co785   2.193       .  S
N772        N784   1.323       .  A
N772        N788   1.314       .  A
N772       Co781   2.071       .  S
C773        N777   1.343       .  A
C773        C787   1.447       .  S
C773       C2781   1.413       .  S
C774        C793   1.433       .  S
C774        H778   1.081       .  S
N775        C786   1.366       .  A
N775       Co785   2.191       .  S
C779        N795   1.376       .  A
C779        C791   1.427       .  S
C779       C2745   1.464       .  S
Co781      Cl792   2.428       .  S
N782        C793   1.375       .  A
C783       C2758   1.412       .  S
Co785      Cl792   2.468       .  S
C793       C2749   1.469       .  S
C796        N814   1.342   1_655  A
C796        C833   1.451       .  S
C796       C2765   1.418       .  S
N797        N814   1.321       .  A
N797        N819   1.316       .  A
N797       Co834   2.062       .  S
C798        N823   1.340       .  A
C798        C836   1.451       .  S
C798        H843   1.080       .  S
H799        C840   1.081       .  S
C800        N824   1.365       .  A
C800        C804   1.493       .  S
C800        H829   1.079       .  S
Co801       N819   2.062       .  S
Co801       N809   2.063       .  S
Co801       N841   2.063       .  S
Co801       N817   2.058       .  S
Co801      Cl845   2.462       .  S
N802        C840   1.338       .  A
N802        N809   1.317       .  A
N802       Co803   2.059       .  S
Co803       N806   2.053       .  S
Co803       N823   2.071       .  S
Co803       N810   2.027       .  S
Co803      Cl845   2.439       .  S
C804        N842   1.336       .  A
C804       C2732   1.473       .  S
N805        N812   1.323       .  A
N805        N835   1.344       .  A
N805       Co838   2.200       .  S
N806        N824   1.326       .  A
N806        N842   1.323       .  A
N807        C836   1.343       .  A
N807        N817   1.319       .  A
H808        C833   1.083       .  S
N809        N830   1.320   1_455  A
N810        N828   1.324       .  A
N810        N815   1.317       .  A
C811        N815   1.327       .  A
C811        C839   1.501       .  S
C811       C2735   1.468       .  S
N812        C827   1.335       .  A
N812       Co834   2.046       .  S
C813        N841   1.337       .  A
C813        C816   1.454       .  S
C813        H847   1.084   1_455  S
C816        N837   1.343       .  A
C816       C2742   1.418   1_455  S
N817        N823   1.315       .  A
N818        C844   1.330       .  A
N818        N820   1.322       .  A
N818       Co834   2.032       .  S
N819        C833   1.338   1_455  A
N820        N848   1.345       .  A
N820       Co838   2.201       .  S
H821        C844   1.079       .  S
H822        C839   1.080       .  S
N824       Co838   2.192       .  S
N825        N837   1.321       .  A
N825        N841   1.315       .  A
N825       Co834   2.067       .  S
C826        N830   1.343   1_455  A
C826        C840   1.446       .  S
C826       C2776   1.415   1_455  S
C827        C846   1.436       .  S
C827        H831   1.080       .  S
N828        C839   1.369       .  A
N828       Co838   2.201       .  S
C832        N848   1.378       .  A
C832        C844   1.427       .  S
C832       C2740   1.469       .  S
Co834      Cl845   2.430       .  S
N835        C846   1.376       .  A
C836       C2737   1.414       .  S
Co838      Cl845   2.476       .  S
C846       C2733   1.474       .  S
C849        N867   1.342       .  A
C849        C886   1.451   1_545  S
C849       C2773   1.418   1_545  S
N850        N867   1.321       .  A
N850        N872   1.316       .  A
N850       Co887   2.060       .  S
C851        N876   1.340       .  A
C851        C889   1.452       .  S
C851        H896   1.080       .  S
H852        C893   1.081       .  S
C853        N877   1.365       .  A
C853        C857   1.494       .  S
C853        H882   1.080       .  S
Co854       N872   2.066       .  S
Co854       N862   2.059       .  S
Co854       N894   2.064       .  S
Co854       N870   2.060       .  S
Co854      Cl898   2.460       .  S
N855        C893   1.339       .  A
N855        N862   1.316       .  A
N855       Co856   2.063       .  S
Co856       N859   2.046       .  S
Co856       N876   2.069       .  S
Co856       N863   2.030       .  S
Co856      Cl898   2.433       .  S
C857        N895   1.333       .  A
C857       C2724   1.468       .  S
N858        N865   1.323       .  A
N858        N888   1.343       .  A
N858       Co891   2.197       .  S
N859        N877   1.326       .  A
N859        N895   1.320       .  A
N860        C889   1.343       .  A
N860        N870   1.319       .  A
H861        C886   1.081       .  S
N862        N883   1.320   1_545  A
N863        N881   1.325       .  A
N863        N868   1.318       .  A
C864        N868   1.328       .  A
C864        C892   1.500       .  S
C864       C2727   1.468       .  S
N865        C880   1.331       .  A
N865       Co887   2.032       .  S
C866        N894   1.338       .  A
C866        C869   1.452       .  S
C866        H900   1.082   1_545  S
C869        N890   1.340       .  A
C869       C2738   1.415       .  S
N870        N876   1.315       .  A
N871        C897   1.328       .  A
N871        N873   1.322       .  A
N871       Co887   2.025       .  S
N872        C886   1.338   1_545  A
N873        N901   1.345       .  A
N873       Co891   2.205       .  S
H874        C897   1.079       .  S
H875        C892   1.080       .  S
N877       Co891   2.190       .  S
N878        N890   1.321       .  A
N878        N894   1.314       .  A
N878       Co887   2.057       .  S
C879        N883   1.342   1_545  A
C879        C893   1.450       .  S
C879       C2752   1.417   1_545  S
C880        C899   1.430       .  S
C880        H884   1.079       .  S
N881        C892   1.369       .  A
N881       Co891   2.200       .  S
C885        N901   1.379       .  A
C885        C897   1.423       .  S
C885       C2726   1.466       .  S
Co887      Cl898   2.430       .  S
N888        C899   1.375       .  A
C889       C2730   1.416       .  S
Co891      Cl898   2.479       .  S
C899       C2721   1.466       .  S
C902        N920   1.345       .  A
C902        C939   1.449       .  S
C902       C2744   1.422       .  S
N903        N920   1.324       .  A
N903        N925   1.315       .  A
N903       Co940   2.070       .  S
C904        N929   1.340       .  A
C904        C942   1.450       .  S
C904        H949   1.082       .  S
H905        C946   1.079       .  S
C906        N930   1.368       .  A
C906        C910   1.498       .  S
C906        H935   1.079       .  S
Co907       N925   2.060       .  S
Co907       N915   2.066       .  S
Co907       N947   2.066       .  S
Co907       N923   2.057       .  S
Co907      Cl951   2.470       .  S
N908        C946   1.338       .  A
N908        N915   1.316       .  A
N908       Co909   2.057       .  S
Co909       N912   2.040       .  S
Co909       N929   2.066       .  S
Co909       N916   2.028       .  S
Co909      Cl951   2.436       .  S
C910        N948   1.331       .  A
C910       C2713   1.471       .  S
N911        N918   1.324       .  A
N911        N941   1.344       .  A
N911       Co944   2.200       .  S
N912        N930   1.326       .  A
N912        N948   1.320       .  A
N913        C942   1.343       .  A
N913        N923   1.319       .  A
H914        C939   1.082       .  S
N915        N936   1.320       .  A
N916        N934   1.325       .  A
N916        N921   1.317       .  A
C917        N921   1.327       .  A
C917        C945   1.500       .  S
C917       C2717   1.466       .  S
N918        C933   1.329       .  A
N918       Co940   2.032       .  S
C919        N947   1.337       .  A
C919        C922   1.452       .  S
C919        H953   1.082       .  S
C922        N943   1.341       .  A
C922       C2729   1.417       .  S
N923        N929   1.315       .  A
N924        C950   1.333       .  A
N924        N926   1.323       .  A
N924       Co940   2.044       .  S
N925        C939   1.336       .  A
N926        N954   1.344       .  A
N926       Co944   2.196       .  S
H927        C950   1.079       .  S
H928        C945   1.080       .  S
N930       Co944   2.201       .  S
N931        N943   1.321       .  A
N931        N947   1.315       .  A
N931       Co940   2.056       .  S
C932        N936   1.344       .  A
C932        C946   1.447       .  S
C932       C2760   1.416       .  S
C933        C952   1.427       .  S
C933        H937   1.080       .  S
N934        C945   1.368       .  A
N934       Co944   2.200       .  S
C938        N954   1.376       .  A
C938        C950   1.431       .  S
C938       C2719   1.470       .  S
Co940      Cl951   2.430       .  S
N941        C952   1.376       .  A
C942       C2741   1.417       .  S
Co944      Cl951   2.471       .  S
C952       C2715   1.465       .  S
C955        N973   1.378       .  A
C955        C992   1.426       .  S
C955       C2736   1.468       .  S
N956        N973   1.345       .  A
N956        N978   1.323       .  A
N956       Co993   2.203       .  S
C957        N982   1.338       .  A
C957        C995   1.452       .  S
C957       H1002   1.083       .  S
H958        C999   1.082       .  S
C959        N983   1.338       .  A
C959        C963   1.445       .  S
C959        H988   1.079       .  S
Co960       N978   2.031       .  S
Co960       N968   2.061       .  S
Co960      N1000   2.039       .  S
Co960       N976   2.058       .  S
Co960     Cl1004   2.427       .  S
N961        C999   1.335       .  A
N961        N968   1.314       .  A
N961       Co962   2.056       .  S
Co962       N965   2.065       .  S
Co962       N982   2.065       .  S
Co962       N969   2.058       .  S
Co962     Cl1004   2.473       .  S
C963       N1001   1.345       .  A
C963       C2709   1.416       .  S
N964        N971   1.326       .  A
N964        N994   1.318       .  A
N964       Co997   2.037       .  S
N965        N983   1.314       .  A
N965       N1001   1.321       .  A
N966        C995   1.342       .  A
N966        N976   1.321       .  A
H967        C992   1.079       .  S
N968        N989   1.322       .  A
N969        N987   1.315       .  A
N969        N974   1.319       .  A
C970        N974   1.343       .  A
C970        C998   1.452       .  S
C970       C2705   1.419       .  S
N971        C986   1.368       .  A
N971       Co993   2.197       .  S
C972       N1000   1.331       .  A
C972        C975   1.430       .  S
C972       H1006   1.079       .  S
C975        N996   1.377       .  A
C975       C2703   1.468       .  S
N976        N982   1.315       .  A
N977       C1003   1.367       .  A
N977        N979   1.326       .  A
N977       Co993   2.200       .  S
N978        C992   1.330       .  A
N979       N1007   1.317       .  A
N979       Co997   2.025       .  S
H980       C1003   1.080       .  S
H981        C998   1.081       .  S
N983       Co997   2.055       .  S
N984        N996   1.344       .  A
N984       N1000   1.324       .  A
N984       Co993   2.199       .  S
C985        N989   1.343       .  A
C985        C999   1.449       .  S
C985       C2711   1.415       .  S
C986       C1005   1.499       .  S
C986        H990   1.080       .  S
N987        C998   1.340       .  A
N987       Co997   2.067       .  S
C991       N1007   1.327       .  A
C991       C1003   1.498       .  S
C991       C2701   1.464       .  S
Co993     Cl1004   2.473       .  S
N994       C1005   1.328       .  A
C995       C2707   1.418       .  S
Co997     Cl1004   2.431       .  S
C1005      C2725   1.468       .  S
C1008      N1026   1.376       .  A
C1008      C1045   1.432       .  S
C1008      C2750   1.470       .  S
N1009      N1026   1.344       .  A
N1009      N1031   1.324       .  A
N1009     Co1046   2.198       .  S
C1010      N1035   1.334       .  A
C1010      C1048   1.449       .  S
C1010      H1055   1.082       .  S
H1011      C1052   1.082       .  S
C1012      N1036   1.339       .  A
C1012      C1016   1.450       .  S
C1012      H1041   1.080       .  S
Co1013     N1031   2.046       .  S
Co1013     N1021   2.062       .  S
Co1013     N1053   2.035       .  S
Co1013     N1029   2.070       .  S
Co1013    Cl1057   2.438       .  S
N1014      C1052   1.335       .  A
N1014      N1021   1.314       .  A
N1014     Co1015   2.057       .  S
Co1015     N1018   2.057       .  S
Co1015     N1035   2.054       .  S
Co1015     N1022   2.050       .  S
Co1015    Cl1057   2.458       .  S
C1016      N1054   1.342       .  A
C1016      C2696   1.414       .  S
N1017      N1024   1.325       .  A
N1017      N1047   1.320       .  A
N1017     Co1050   2.040       .  S
N1018      N1036   1.315       .  A
N1018      N1054   1.319       .  A
N1019      C1048   1.347       .  A
N1019      N1029   1.322       .  A
H1020      C1045   1.081       .  S
N1021      N1042   1.322       .  A
N1022      N1040   1.314       .  A
N1022      N1027   1.317       .  A
C1023      N1027   1.340       .  A
C1023      C1051   1.455       .  S
C1023      C2693   1.414       .  S
N1024      C1039   1.366       .  A
N1024     Co1046   2.192       .  S
C1025      N1053   1.330       .  A
C1025      C1028   1.429       .  S
C1025      H1059   1.081       .  S
C1028      N1049   1.376       .  A
C1028      C2692   1.466       .  S
N1029      N1035   1.314       .  A
N1030      C1056   1.367       .  A
N1030      N1032   1.326       .  A
N1030     Co1046   2.197       .  S
N1031      C1045   1.333       .  A
N1032      N1060   1.320       .  A
N1032     Co1050   2.040       .  S
H1033      C1056   1.080       .  S
H1034      C1051   1.081       .  S
N1036     Co1050   2.065       .  S
N1037      N1049   1.344       .  A
N1037      N1053   1.323       .  A
N1037     Co1046   2.195       .  S
C1038      N1042   1.344       .  A
C1038      C1052   1.448       .  S
C1038      C2700   1.417       .  S
C1039      C1058   1.495       .  S
C1039      H1043   1.080       .  S
N1040      C1051   1.341       .  A
N1040     Co1050   2.066       .  S
C1044      N1060   1.331       .  A
C1044      C1056   1.497       .  S
C1044      C2689   1.470       .  S
Co1046    Cl1057   2.460       .  S
N1047      C1058   1.331       .  A
C1048      C2697   1.416       .  S
Co1050    Cl1057   2.443       .  S
C1058      C2723   1.468       .  S
C1061      N1079   1.345       .  A
C1061      C1098   1.449       .  S
C1061      C2683   1.417       .  S
N1062      N1079   1.321       .  A
N1062      N1084   1.314       .  A
N1062     Co1099   2.064       .  S
C1063      N1088   1.365       .  A
C1063      C1101   1.495       .  S
C1063      H1108   1.080       .  S
H1064      C1105   1.081       .  S
C1065      N1089   1.328       .  A
C1065      C1069   1.425       .  S
C1065      H1094   1.079       .  S
Co1066     N1084   2.063       .  S
Co1066     N1074   2.040       .  S
Co1066     N1106   2.063       .  S
Co1066     N1082   2.040       .  S
Co1066    Cl1110   2.437       .  S
N1067      C1105   1.367       .  A
N1067      N1074   1.325       .  A
N1067     Co1068   2.192       .  S
Co1068     N1071   2.197       .  S
Co1068     N1088   2.190       .  S
Co1068     N1075   2.196       .  S
Co1068    Cl1110   2.464       .  S
C1069      N1107   1.377       .  A
C1069      C2867   1.463       .  S
N1070      N1077   1.314       .  A
N1070      N1100   1.323       .  A
N1070     Co1103   2.071       .  S
N1071      N1089   1.322       .  A
N1071      N1107   1.344       .  A
N1072      C1101   1.332       .  A
N1072      N1082   1.320       .  A
H1073      C1098   1.082       .  S
N1074      N1095   1.319       .  A
N1075      N1093   1.324       .  A
N1075      N1080   1.344       .  A
C1076      N1080   1.375       .  A
C1076      C1104   1.435       .  S
C1076      C2731   1.472       .  S
N1077      C1092   1.333       .  A
N1077     Co1099   2.049       .  S
C1078      N1106   1.338       .  A
C1078      C1081   1.450       .  S
C1078      H1112   1.082       .  S
C1081      N1102   1.343       .  A
C1081      C2687   1.415       .  S
N1082      N1088   1.325       .  A
N1083      C1109   1.335       .  A
N1083      N1085   1.316       .  A
N1083     Co1099   2.062       .  S
N1084      C1098   1.339       .  A
N1085      N1113   1.322       .  A
N1085     Co1103   2.055       .  S
H1086      C1109   1.081       .  S
H1087      C1104   1.079       .  S
N1089     Co1103   2.027       .  S
N1090      N1102   1.319       .  A
N1090      N1106   1.315       .  A
N1090     Co1099   2.055       .  S
C1091      N1095   1.330       .  A
C1091      C1105   1.497       .  S
C1091      C2902   1.468       .  S
C1092      C1111   1.446       .  S
C1092      H1096   1.081       .  S
N1093      C1104   1.335       .  A
N1093     Co1103   2.051       .  S
C1097      N1113   1.342       .  A
C1097      C1109   1.447       .  S
C1097      C2681   1.413       .  S
Co1099    Cl1110   2.463       .  S
N1100      C1111   1.346       .  A
C1101      C2772   1.467       .  S
Co1103    Cl1110   2.437       .  S
C1111      C2685   1.413       .  S
C1114      N1132   1.343       .  A
C1114      C1151   1.452       .  S
C1114      C2679   1.415       .  S
N1115      N1132   1.319       .  A
N1115      N1137   1.315       .  A
N1115     Co1152   2.053       .  S
C1116      N1141   1.365       .  A
C1116      C1154   1.494       .  S
C1116      H1161   1.080       .  S
H1117      C1158   1.080       .  S
C1118      N1142   1.334       .  A
C1118      C1122   1.434       .  S
C1118      H1147   1.080       .  S
Co1119     N1137   2.071       .  S
Co1119     N1127   2.036       .  S
Co1119     N1159   2.063       .  S
Co1119     N1135   2.044       .  S
Co1119    Cl1163   2.436       .  S
N1120      C1158   1.365       .  A
N1120      N1127   1.325       .  A
N1120     Co1121   2.185       .  S
Co1121     N1124   2.197       .  S
Co1121     N1141   2.190       .  S
Co1121     N1128   2.188       .  S
Co1121    Cl1163   2.463       .  S
C1122      N1160   1.376       .  A
C1122      C2734   1.473       .  S
N1123      N1130   1.314       .  A
N1123      N1153   1.320       .  A
N1123     Co1156   2.053       .  S
N1124      N1142   1.323       .  A
N1124      N1160   1.344       .  A
N1125      C1154   1.332       .  A
N1125      N1135   1.319       .  A
H1126      C1151   1.081       .  S
N1127      N1148   1.318       .  A
N1128      N1146   1.322       .  A
N1128      N1133   1.342       .  A
C1129      N1133   1.374       .  A
C1129      C1157   1.427       .  S
C1129      C2673   1.459       .  S
N1130      C1145   1.336       .  A
N1130     Co1152   2.062       .  S
C1131      N1159   1.340       .  A
C1131      C1134   1.450       .  S
C1131      H1165   1.081       .  S
C1134      N1155   1.343       .  A
C1134      C2678   1.417       .  S
N1135      N1141   1.326       .  A
N1136      C1162   1.334       .  A
N1136      N1138   1.315       .  A
N1136     Co1152   2.051       .  S
N1137      C1151   1.339       .  A
N1138      N1166   1.322       .  A
N1138     Co1156   2.071       .  S
H1139      C1162   1.081       .  S
H1140      C1157   1.080       .  S
N1142     Co1156   2.048       .  S
N1143      N1155   1.320       .  A
N1143      N1159   1.314       .  A
N1143     Co1152   2.063       .  S
C1144      N1148   1.330       .  A
C1144      C1158   1.494       .  S
C1144      C2764   1.464       .  S
C1145      C1164   1.452       .  S
C1145      H1149   1.081       .  S
N1146      C1157   1.329       .  A
N1146     Co1156   2.027       .  S
C1150      N1166   1.345       .  A
C1150      C1162   1.447       .  S
C1150      C2675   1.415       .  S
Co1152    Cl1163   2.466       .  S
N1153      C1164   1.341       .  A
C1154      C2671   1.466       .  S
Co1156    Cl1163   2.432       .  S
C1164      C2682   1.413       .  S
C1167      N1185   1.376       .  A
C1167      C1204   1.427       .  S
C1167      C2829   1.464       .  S
N1168      N1185   1.344       .  A
N1168      N1190   1.323       .  A
N1168     Co1205   2.195       .  S
C1169      N1194   1.335       .  A
C1169      C1207   1.449       .  S
C1169      H1214   1.083       .  S
H1170      C1211   1.083       .  S
C1171      N1195   1.340       .  A
C1171      C1175   1.448       .  S
C1171      H1200   1.080       .  S
Co1172     N1190   2.032       .  S
Co1172     N1180   2.065       .  S
Co1172     N1212   2.039       .  S
Co1172     N1188   2.060       .  S
Co1172    Cl1216   2.430       .  S
N1173      C1211   1.335       .  A
N1173      N1180   1.314       .  A
N1173     Co1174   2.060       .  S
Co1174     N1177   2.056       .  S
Co1174     N1194   2.056       .  S
Co1174     N1181   2.061       .  S
Co1174    Cl1216   2.470       .  S
C1175      N1213   1.342       .  A
C1175      C2665   1.415       .  S
N1176      N1183   1.325       .  A
N1176      N1206   1.319       .  A
N1176     Co1209   2.039       .  S
N1177      N1195   1.315       .  A
N1177      N1213   1.320       .  A
N1178      C1207   1.343       .  A
N1178      N1188   1.321       .  A
H1179      C1204   1.081       .  S
N1180      N1201   1.323       .  A
N1181      N1199   1.315       .  A
N1181      N1186   1.321       .  A
C1182      N1186   1.345       .  A
C1182      C1210   1.447       .  S
C1182      C2695   1.415       .  S
N1183      C1198   1.368       .  A
N1183     Co1205   2.199       .  S
C1184      N1212   1.331       .  A
C1184      C1187   1.429       .  S
C1184      H1218   1.081       .  S
C1187      N1208   1.376       .  A
C1187      C2770   1.467       .  S
N1188      N1194   1.314       .  A
N1189      C1215   1.366       .  A
N1189      N1191   1.325       .  A
N1189     Co1205   2.193       .  S
N1190      C1204   1.329       .  A
N1191      N1219   1.320       .  A
N1191     Co1209   2.041       .  S
H1192      C1215   1.079       .  S
H1193      C1210   1.080       .  S
N1195     Co1209   2.067       .  S
N1196      N1208   1.344       .  A
N1196      N1212   1.324       .  A
N1196     Co1205   2.197       .  S
C1197      N1201   1.345       .  A
C1197      C1211   1.449       .  S
C1197      C2668   1.417       .  S
C1198      C1217   1.499       .  S
C1198      H1202   1.079       .  S
N1199      C1210   1.337       .  A
N1199     Co1209   2.060       .  S
C1203      N1219   1.332       .  A
C1203      C1215   1.495       .  S
C1203      C2722   1.468       .  S
Co1205    Cl1216   2.469       .  S
N1206      C1217   1.330       .  A
C1207      C2669   1.414       .  S
Co1209    Cl1216   2.434       .  S
C1217      C2794   1.472       .  S
C1220      N1238   1.343       .  A
C1220      C1257   1.450       .  S
C1220      C2660   1.417       .  S
N1221      N1238   1.319       .  A
N1221      N1243   1.315       .  A
N1221     Co1258   2.064       .  S
C1222      N1247   1.366       .  A
C1222      C1260   1.496       .  S
C1222      H1267   1.081       .  S
H1223      C1264   1.080       .  S
C1224      N1248   1.331       .  A
C1224      C1228   1.429       .  S
C1224      H1253   1.079       .  S
Co1225     N1243   2.061       .  S
Co1225     N1233   2.044       .  S
Co1225     N1265   2.068       .  S
Co1225     N1241   2.032       .  S
Co1225    Cl1269   2.435       .  S
N1226      C1264   1.366       .  A
N1226      N1233   1.326       .  A
N1226     Co1227   2.194       .  S
Co1227     N1230   2.191       .  S
Co1227     N1247   2.190       .  S
Co1227     N1234   2.198       .  S
Co1227    Cl1269   2.468       .  S
C1228      N1266   1.375       .  A
C1228      C2788   1.464       .  S
N1229      N1236   1.315       .  A
N1229      N1259   1.321       .  A
N1229     Co1262   2.058       .  S
N1230      N1248   1.323       .  A
N1230      N1266   1.343       .  A
N1231      C1260   1.328       .  A
N1231      N1241   1.317       .  A
H1232      C1257   1.082       .  S
N1233      N1254   1.320       .  A
N1234      N1252   1.323       .  A
N1234      N1239   1.345       .  A
C1235      N1239   1.377       .  A
C1235      C1263   1.429       .  S
C1235      C2714   1.470       .  S
N1236      C1251   1.337       .  A
N1236     Co1258   2.062       .  S
C1237      N1265   1.340       .  A
C1237      C1240   1.451       .  S
C1237      H1271   1.080       .  S
C1240      N1261   1.343       .  A
C1240      C2663   1.415       .  S
N1241      N1247   1.325       .  A
N1242      C1268   1.339       .  A
N1242      N1244   1.315       .  A
N1242     Co1258   2.069       .  S
N1243      C1257   1.340       .  A
N1244      N1272   1.321       .  A
N1244     Co1262   2.056       .  S
H1245      C1268   1.081       .  S
H1246      C1263   1.079       .  S
N1248     Co1262   2.034       .  S
N1249      N1261   1.319       .  A
N1249      N1265   1.315       .  A
N1249     Co1258   2.058       .  S
C1250      N1254   1.332       .  A
C1250      C1264   1.495       .  S
C1250      C2842   1.468       .  S
C1251      C1270   1.452       .  S
C1251      H1255   1.081       .  S
N1252      C1263   1.331       .  A
N1252     Co1262   2.037       .  S
C1256      N1272   1.340       .  A
C1256      C1268   1.454       .  S
C1256      C2657   1.419       .  S
Co1258    Cl1269   2.468       .  S
N1259      C1270   1.342       .  A
C1260      C2762   1.464       .  S
Co1262    Cl1269   2.430       .  S
C1270      C2661   1.415       .  S
C1273      N1291   1.377       .  A
C1273      C1310   1.433       .  S
C1273      C2899   1.473       .  S
N1274      N1291   1.345       .  A
N1274      N1296   1.323       .  A
N1274     Co1311   2.198       .  S
C1275      N1300   1.333       .  A
C1275      C1313   1.446       .  S
C1275      H1320   1.083       .  S
H1276      C1317   1.083       .  S
C1277      N1301   1.341       .  A
C1277      C1281   1.453       .  S
C1277      H1306   1.081       .  S
Co1278     N1296   2.044       .  S
Co1278     N1286   2.059       .  S
Co1278     N1318   2.037       .  S
Co1278     N1294   2.070       .  S
Co1278    Cl1322   2.439       .  S
N1279      C1317   1.337       .  A
N1279      N1286   1.315       .  A
N1279     Co1280   2.065       .  S
Co1280     N1283   2.050       .  S
Co1280     N1300   2.050       .  S
Co1280     N1287   2.061       .  S
Co1280    Cl1322   2.460       .  S
C1281      N1319   1.340       .  A
C1281      C2649   1.415       .  S
N1282      N1289   1.325       .  A
N1282      N1312   1.321       .  A
N1282     Co1315   2.046       .  S
N1283      N1301   1.315       .  A
N1283      N1319   1.318       .  A
N1284      C1313   1.347       .  A
N1284      N1294   1.323       .  A
H1285      C1310   1.081       .  S
N1286      N1307   1.321       .  A
N1287      N1305   1.316       .  A
N1287      N1292   1.320       .  A
C1288      N1292   1.343       .  A
C1288      C1316   1.450       .  S
C1288      C2653   1.416       .  S
N1289      C1304   1.366       .  A
N1289     Co1311   2.194       .  S
C1290      N1318   1.330       .  A
C1290      C1293   1.431       .  S
C1290      H1324   1.081       .  S
C1293      N1314   1.373       .  A
C1293      C2827   1.461       .  S
N1294      N1300   1.314       .  A
N1295      C1321   1.368       .  A
N1295      N1297   1.325       .  A
N1295     Co1311   2.199       .  S
N1296      C1310   1.333       .  A
N1297      N1325   1.321       .  A
N1297     Co1315   2.047       .  S
H1298      C1321   1.079       .  S
H1299      C1316   1.081       .  S
N1301     Co1315   2.070       .  S
N1302      N1314   1.342       .  A
N1302      N1318   1.323       .  A
N1302     Co1311   2.187       .  S
C1303      N1307   1.343       .  A
C1303      C1317   1.452       .  S
C1303      C2651   1.416       .  S
C1304      C1323   1.496       .  S
C1304      H1308   1.080       .  S
N1305      C1316   1.339       .  A
N1305     Co1315   2.067       .  S
C1309      N1325   1.333       .  A
C1309      C1321   1.498       .  S
C1309      C2806   1.475       .  S
Co1311    Cl1322   2.459       .  S
N1312      C1323   1.333       .  A
C1313      C2656   1.416       .  S
Co1315    Cl1322   2.447       .  S
C1323      C2875   1.472       .  S
C1326      N1344   1.344       .  A
C1326      C1363   1.448       .  S
C1326      C2648   1.415       .  S
N1327      N1344   1.320       .  A
N1327      N1349   1.315       .  A
N1327     Co1364   2.064       .  S
C1328      N1353   1.365       .  A
C1328      C1366   1.495       .  S
C1328      H1373   1.081       .  S
H1329      C1370   1.081       .  S
C1330      N1354   1.329       .  A
C1330      C1334   1.426       .  S
C1330      H1359   1.079       .  S
Co1331     N1349   2.061       .  S
Co1331     N1339   2.041       .  S
Co1331     N1371   2.066       .  S
Co1331     N1347   2.040       .  S
Co1331    Cl1375   2.435       .  S
N1332      C1370   1.365       .  A
N1332      N1339   1.325       .  A
N1332     Co1333   2.189       .  S
Co1333     N1336   2.193       .  S
Co1333     N1353   2.191       .  S
Co1333     N1340   2.197       .  S
Co1333    Cl1375   2.468       .  S
C1334      N1372   1.375       .  A
C1334      C2795   1.461       .  S
N1335      N1342   1.315       .  A
N1335      N1365   1.322       .  A
N1335     Co1368   2.069       .  S
N1336      N1354   1.322       .  A
N1336      N1372   1.343       .  A
N1337      C1366   1.332       .  A
N1337      N1347   1.320       .  A
H1338      C1363   1.081       .  S
N1339      N1360   1.319       .  A
N1340      N1358   1.324       .  A
N1340      N1345   1.344       .  A
C1341      N1345   1.376       .  A
C1341      C1369   1.437       .  S
C1341      C2642   1.476       .  S
N1342      C1357   1.336       .  A
N1342     Co1364   2.056       .  S
C1343      N1371   1.339       .  A
C1343      C1346   1.450       .  S
C1343      H1377   1.082       .  S
C1346      N1367   1.342       .  A
C1346      C2643   1.415       .  S
N1347      N1353   1.325       .  A
N1348      C1374   1.339       .  A
N1348      N1350   1.316       .  A
N1348     Co1364   2.069       .  S
N1349      C1363   1.338       .  A
N1350      N1378   1.319       .  A
N1350     Co1368   2.049       .  S
H1351      C1374   1.081       .  S
H1352      C1369   1.079       .  S
N1354     Co1368   2.025       .  S
N1355      N1367   1.319       .  A
N1355      N1371   1.316       .  A
N1355     Co1364   2.057       .  S
C1356      N1360   1.331       .  A
C1356      C1370   1.494       .  S
C1356      C2821   1.465       .  S
C1357      C1376   1.450       .  S
C1357      H1361   1.081       .  S
N1358      C1369   1.336       .  A
N1358     Co1368   2.055       .  S
C1362      N1378   1.338       .  A
C1362      C1374   1.454       .  S
C1362      C2694   1.416       .  S
Co1364    Cl1375   2.470       .  S
N1365      C1376   1.344       .  A
C1366      C2645   1.469       .  S
Co1368    Cl1375   2.431       .  S
C1376      C2666   1.415       .  S
C1379      N1397   1.374       .  A
C1379      C1416   1.431       .  S
C1379      C2849   1.465       .  S
N1380      N1397   1.343       .  A
N1380      N1402   1.323       .  A
N1380     Co1417   2.192       .  S
C1381      N1406   1.337       .  A
C1381      C1419   1.454       .  S
C1381      H1426   1.084       .  S
H1382      C1423   1.084       .  S
C1383      N1407   1.338       .  A
C1383      C1387   1.447       .  S
C1383      H1412   1.080       .  S
Co1384     N1402   2.039       .  S
Co1384     N1392   2.063       .  S
Co1384     N1424   2.036       .  S
Co1384     N1400   2.062       .  S
Co1384    Cl1428   2.432       .  S
N1385      C1423   1.336       .  A
N1385      N1392   1.314       .  A
N1385     Co1386   2.057       .  S
Co1386     N1389   2.065       .  S
Co1386     N1406   2.066       .  S
Co1386     N1393   2.057       .  S
Co1386    Cl1428   2.466       .  S
C1387      N1425   1.345       .  A
C1387      C2654   1.416       .  S
N1388      N1395   1.325       .  A
N1388      N1418   1.321       .  A
N1388     Co1421   2.048       .  S
N1389      N1407   1.315       .  A
N1389      N1425   1.321       .  A
N1390      C1419   1.343       .  A
N1390      N1400   1.321       .  A
H1391      C1416   1.081       .  S
N1392      N1413   1.322       .  A
N1393      N1411   1.315       .  A
N1393      N1398   1.319       .  A
C1394      N1398   1.342       .  A
C1394      C1422   1.454       .  S
C1394      C2636   1.419       .  S
N1395      C1410   1.365       .  A
N1395     Co1417   2.189       .  S
C1396      N1424   1.330       .  A
C1396      C1399   1.427       .  S
C1396      H1430   1.081       .  S
C1399      N1420   1.377       .  A
C1399      C2638   1.467       .  S
N1400      N1406   1.315       .  A
N1401      C1427   1.367       .  A
N1401      N1403   1.326       .  A
N1401     Co1417   2.196       .  S
N1402      C1416   1.331       .  A
N1403      N1431   1.318       .  A
N1403     Co1421   2.035       .  S
H1404      C1427   1.079       .  S
H1405      C1422   1.081       .  S
N1407     Co1421   2.060       .  S
N1408      N1420   1.345       .  A
N1408      N1424   1.323       .  A
N1408     Co1417   2.196       .  S
C1409      N1413   1.344       .  A
C1409      C1423   1.450       .  S
C1409      C2640   1.418       .  S
C1410      C1429   1.494       .  S
C1410      H1414   1.079       .  S
N1411      C1422   1.342       .  A
N1411     Co1421   2.074       .  S
C1415      N1431   1.330       .  A
C1415      C1427   1.497       .  S
C1415      C2633   1.467       .  S
Co1417    Cl1428   2.467       .  S
N1418      C1429   1.333       .  A
C1419      C2706   1.420       .  S
Co1421    Cl1428   2.439       .  S
C1429      C2803   1.468       .  S
C1432      N1450   1.343       .  A
C1432      C1469   1.449       .  S
C1432      C2629   1.412       .  S
N1433      N1450   1.319       .  A
N1433      N1455   1.314       .  A
N1433     Co1470   2.058       .  S
C1434      N1459   1.367       .  A
C1434      C1472   1.497       .  S
C1434      H1479   1.080       .  S
H1435      C1476   1.081       .  S
C1436      N1460   1.329       .  A
C1436      C1440   1.425       .  S
C1436      H1465   1.079       .  S
Co1437     N1455   2.059       .  S
Co1437     N1445   2.031       .  S
Co1437     N1477   2.057       .  S
Co1437     N1453   2.038       .  S
Co1437    Cl1481   2.431       .  S
N1438      C1476   1.367       .  A
N1438      N1445   1.325       .  A
N1438     Co1439   2.196       .  S
Co1439     N1442   2.201       .  S
Co1439     N1459   2.193       .  S
Co1439     N1446   2.200       .  S
Co1439    Cl1481   2.469       .  S
C1440      N1478   1.378       .  A
C1440      C2802   1.466       .  S
N1441      N1448   1.315       .  A
N1441      N1471   1.321       .  A
N1441     Co1474   2.058       .  S
N1442      N1460   1.323       .  A
N1442      N1478   1.345       .  A
N1443      C1472   1.330       .  A
N1443      N1453   1.318       .  A
H1444      C1469   1.080       .  S
N1445      N1466   1.318       .  A
N1446      N1464   1.323       .  A
N1446      N1451   1.344       .  A
C1447      N1451   1.377       .  A
C1447      C1475   1.429       .  S
C1447      C2628   1.469       .  S
N1448      C1463   1.339       .  A
N1448     Co1470   2.066       .  S
C1449      N1477   1.337       .  A
C1449      C1452   1.448       .  S
C1449      H1483   1.082       .  S
C1452      N1473   1.344       .  A
C1452      C2624   1.413       .  S
N1453      N1459   1.325       .  A
N1454      C1480   1.336       .  A
N1454      N1456   1.314       .  A
N1454     Co1470   2.059       .  S
N1455      C1469   1.338       .  A
N1456      N1484   1.321       .  A
N1456     Co1474   2.060       .  S
H1457      C1480   1.082       .  S
H1458      C1475   1.079       .  S
N1460     Co1474   2.032       .  S
N1461      N1473   1.319       .  A
N1461      N1477   1.315       .  A
N1461     Co1470   2.062       .  S
C1462      N1466   1.328       .  A
C1462      C1476   1.497       .  S
C1462      C2812   1.465       .  S
C1463      C1482   1.453       .  S
C1463      H1467   1.082       .  S
N1464      C1475   1.331       .  A
N1464     Co1474   2.035       .  S
C1468      N1484   1.343       .  A
C1468      C1480   1.450       .  S
C1468      C2677   1.416       .  S
Co1470    Cl1481   2.469       .  S
N1471      C1482   1.340       .  A
C1472      C2625   1.468       .  S
Co1474    Cl1481   2.429       .  S
C1482      C2631   1.416       .  S
C1485      N1503   1.376       .  A
C1485      C1522   1.429       .  S
C1485      C2646   1.468       .  S
N1486      N1503   1.344       .  A
N1486      N1508   1.323       .  A
N1486     Co1523   2.199       .  S
C1487      N1512   1.335       .  A
C1487      C1525   1.449       .  S
C1487      H1532   1.083       .  S
H1488      C1529   1.083       .  S
C1489      N1513   1.336       .  A
C1489      C1493   1.445       .  S
C1489      H1518   1.080       .  S
Co1490     N1508   2.039       .  S
Co1490     N1498   2.059       .  S
Co1490     N1530   2.038       .  S
Co1490     N1506   2.063       .  S
Co1490    Cl1534   2.431       .  S
N1491      C1529   1.336       .  A
N1491      N1498   1.314       .  A
N1491     Co1492   2.058       .  S
Co1492     N1495   2.061       .  S
Co1492     N1512   2.059       .  S
Co1492     N1499   2.058       .  S
Co1492    Cl1534   2.462       .  S
C1493      N1531   1.345       .  A
C1493      C2619   1.410       .  S
N1494      N1501   1.324       .  A
N1494      N1524   1.318       .  A
N1494     Co1527   2.033       .  S
N1495      N1513   1.314       .  A
N1495      N1531   1.320       .  A
N1496      C1525   1.344       .  A
N1496      N1506   1.322       .  A
H1497      C1522   1.080       .  S
N1498      N1519   1.321       .  A
N1499      N1517   1.314       .  A
N1499      N1504   1.319       .  A
C1500      N1504   1.342       .  A
C1500      C1528   1.449       .  S
C1500      C2617   1.411       .  S
N1501      C1516   1.366       .  A
N1501     Co1523   2.189       .  S
C1502      N1530   1.331       .  A
C1502      C1505   1.431       .  S
C1502      H1536   1.081       .  S
C1505      N1526   1.374       .  A
C1505      C2613   1.464       .  S
N1506      N1512   1.315       .  A
N1507      C1533   1.368       .  A
N1507      N1509   1.325       .  A
N1507     Co1523   2.201       .  S
N1508      C1522   1.331       .  A
N1509      N1537   1.318       .  A
N1509     Co1527   2.028       .  S
H1510      C1533   1.080       .  S
H1511      C1528   1.080       .  S
N1513     Co1527   2.053       .  S
N1514      N1526   1.342       .  A
N1514      N1530   1.323       .  A
N1514     Co1523   2.189       .  S
C1515      N1519   1.343       .  A
C1515      C1529   1.452       .  S
C1515      C2621   1.414       .  S
C1516      C1535   1.496       .  S
C1516      H1520   1.080       .  S
N1517      C1528   1.339       .  A
N1517     Co1527   2.057       .  S
C1521      N1537   1.328       .  A
C1521      C1533   1.499       .  S
C1521      C2626   1.468       .  S
Co1523    Cl1534   2.463       .  S
N1524      C1535   1.329       .  A
C1525      C2616   1.416       .  S
Co1527    Cl1534   2.437       .  S
C1535      C2611   1.464       .  S
C1538      N1556   1.346       .  A
C1538      C1575   1.446       .  S
C1538      C2664   1.416       .  S
N1539      N1556   1.321       .  A
N1539      N1561   1.315       .  A
N1539     Co1576   2.067       .  S
C1540      N1565   1.367       .  A
C1540      C1578   1.498       .  S
C1540      H1585   1.080       .  S
H1541      C1582   1.080       .  S
C1542      N1566   1.329       .  A
C1542      C1546   1.426       .  S
C1542      H1571   1.079       .  S
Co1543     N1561   2.058       .  S
Co1543     N1551   2.028       .  S
Co1543     N1583   2.055       .  S
Co1543     N1559   2.032       .  S
Co1543    Cl1587   2.432       .  S
N1544      C1582   1.370       .  A
N1544      N1551   1.325       .  A
N1544     Co1545   2.207       .  S
Co1545     N1548   2.194       .  S
Co1545     N1565   2.197       .  S
Co1545     N1552   2.206       .  S
Co1545    Cl1587   2.468       .  S
C1546      N1584   1.375       .  A
C1546      C2747   1.461       .  S
N1547      N1554   1.315       .  A
N1547      N1577   1.322       .  A
N1547     Co1580   2.061       .  S
N1548      N1566   1.323       .  A
N1548      N1584   1.343       .  A
N1549      C1578   1.328       .  A
N1549      N1559   1.317       .  A
H1550      C1575   1.079       .  S
N1551      N1572   1.318       .  A
N1552      N1570   1.323       .  A
N1552      N1557   1.344       .  A
C1553      N1557   1.377       .  A
C1553      C1581   1.430       .  S
C1553      C2601   1.470       .  S
N1554      C1569   1.337       .  A
N1554     Co1576   2.060       .  S
C1555      N1583   1.338       .  A
C1555      C1558   1.446       .  S
C1555      H1589   1.080       .  S
C1558      N1579   1.342       .  A
C1558      C2605   1.412       .  S
N1559      N1565   1.326       .  A
N1560      C1586   1.338       .  A
N1560      N1562   1.315       .  A
N1560     Co1576   2.068       .  S
N1561      C1575   1.337       .  A
N1562      N1590   1.320       .  A
N1562     Co1580   2.056       .  S
H1563      C1586   1.083       .  S
H1564      C1581   1.079       .  S
N1566     Co1580   2.031       .  S
N1567      N1579   1.319       .  A
N1567      N1583   1.314       .  A
N1567     Co1576   2.058       .  S
C1568      N1572   1.328       .  A
C1568      C1582   1.503       .  S
C1568      C2756   1.474       .  S
C1569      C1588   1.451       .  S
C1569      H1573   1.082       .  S
N1570      C1581   1.333       .  A
N1570     Co1580   2.035       .  S
C1574      N1590   1.341       .  A
C1574      C1586   1.452       .  S
C1574      C2603   1.415       .  S
Co1576    Cl1587   2.472       .  S
N1577      C1588   1.342       .  A
C1578      C2607   1.465       .  S
Co1580    Cl1587   2.429       .  S
C1588      C2609   1.417       .  S
C1591      N1609   1.376       .  A
C1591      C1628   1.432       .  S
C1591      C2690   1.470       .  S
N1592      N1609   1.344       .  A
N1592      N1614   1.323       .  A
N1592     Co1629   2.199       .  S
C1593      N1618   1.338       .  A
C1593      C1631   1.453       .  S
C1593      H1638   1.082       .  S
H1594      C1635   1.082       .  S
C1595      N1619   1.338       .  A
C1595      C1599   1.446       .  S
C1595      H1624   1.079       .  S
Co1596     N1614   2.041       .  S
Co1596     N1604   2.062       .  S
Co1596     N1636   2.034       .  S
Co1596     N1612   2.065       .  S
Co1596    Cl1640   2.432       .  S
N1597      C1635   1.336       .  A
N1597      N1604   1.315       .  A
N1597     Co1598   2.053       .  S
Co1598     N1601   2.065       .  S
Co1598     N1618   2.065       .  S
Co1598     N1605   2.050       .  S
Co1598    Cl1640   2.456       .  S
C1599      N1637   1.342       .  A
C1599      C2622   1.414       .  S
N1600      N1607   1.326       .  A
N1600      N1630   1.323       .  A
N1600     Co1633   2.052       .  S
N1601      N1619   1.316       .  A
N1601      N1637   1.320       .  A
N1602      C1631   1.343       .  A
N1602      N1612   1.322       .  A
H1603      C1628   1.080       .  S
N1604      N1625   1.321       .  A
N1605      N1623   1.315       .  A
N1605      N1610   1.318       .  A
C1606      N1610   1.341       .  A
C1606      C1634   1.454       .  S
C1606      C2599   1.416       .  S
N1607      C1622   1.367       .  A
N1607     Co1629   2.200       .  S
C1608      N1636   1.331       .  A
C1608      C1611   1.428       .  S
C1608      H1642   1.080       .  S
C1611      N1632   1.377       .  A
C1611      C2597   1.469       .  S
N1612      N1618   1.315       .  A
N1613      C1639   1.368       .  A
N1613      N1615   1.324       .  A
N1613     Co1629   2.198       .  S
N1614      C1628   1.333       .  A
N1615      N1643   1.316       .  A
N1615     Co1633   2.024       .  S
H1616      C1639   1.080       .  S
H1617      C1634   1.080       .  S
N1619     Co1633   2.056       .  S
N1620      N1632   1.345       .  A
N1620      N1636   1.322       .  A
N1620     Co1629   2.198       .  S
C1621      N1625   1.342       .  A
C1621      C1635   1.448       .  S
C1621      C2593   1.415       .  S
C1622      C1641   1.497       .  S
C1622      H1626   1.079       .  S
N1623      C1634   1.342       .  A
N1623     Co1633   2.077       .  S
C1627      N1643   1.326       .  A
C1627      C1639   1.499       .  S
C1627      C2608   1.464       .  S
Co1629    Cl1640   2.473       .  S
N1630      C1641   1.336       .  A
C1631      C2595   1.419       .  S
Co1633    Cl1640   2.442       .  S
C1641      C2641   1.477       .  S
C1644      N1662   1.342       .  A
C1644      C1681   1.451       .  S
C1644      C2591   1.416       .  S
N1645      N1662   1.319       .  A
N1645      N1667   1.315       .  A
N1645     Co1682   2.055       .  S
C1646      N1671   1.365       .  A
C1646      C1684   1.494       .  S
C1646      H1691   1.081       .  S
H1647      C1688   1.080       .  S
C1648      N1672   1.331       .  A
C1648      C1652   1.429       .  S
C1648      H1677   1.079       .  S
Co1649     N1667   2.068       .  S
Co1649     N1657   2.044       .  S
Co1649     N1689   2.069       .  S
Co1649     N1665   2.044       .  S
Co1649    Cl1693   2.435       .  S
N1650      C1688   1.365       .  A
N1650      N1657   1.326       .  A
N1650     Co1651   2.190       .  S
Co1651     N1654   2.198       .  S
Co1651     N1671   2.189       .  S
Co1651     N1658   2.204       .  S
Co1651    Cl1693   2.467       .  S
C1652      N1690   1.377       .  A
C1652      C2877   1.470       .  S
N1653      N1660   1.314       .  A
N1653      N1683   1.320       .  A
N1653     Co1686   2.058       .  S
N1654      N1672   1.322       .  A
N1654      N1690   1.345       .  A
N1655      C1684   1.332       .  A
N1655      N1665   1.320       .  A
H1656      C1681   1.083       .  S
N1657      N1678   1.319       .  A
N1658      N1676   1.323       .  A
N1658      N1663   1.345       .  A
C1659      N1663   1.378       .  A
C1659      C1687   1.430       .  S
C1659      C2587   1.472       .  S
N1660      C1675   1.338       .  A
N1660     Co1682   2.063       .  S
C1661      N1689   1.340       .  A
C1661      C1664   1.453       .  S
C1661      H1695   1.082       .  S
C1664      N1685   1.342       .  A
C1664      C2708   1.417       .  S
N1665      N1671   1.326       .  A
N1666      C1692   1.338       .  A
N1666      N1668   1.314       .  A
N1666     Co1682   2.061       .  S
N1667      C1681   1.340       .  A
N1668      N1696   1.321       .  A
N1668     Co1686   2.061       .  S
H1669      C1692   1.081       .  S
H1670      C1687   1.079       .  S
N1672     Co1686   2.036       .  S
N1673      N1685   1.319       .  A
N1673      N1689   1.316       .  A
N1673     Co1682   2.058       .  S
C1674      N1678   1.331       .  A
C1674      C1688   1.494       .  S
C1674      C2922   1.465       .  S
C1675      C1694   1.454       .  S
C1675      H1679   1.081       .  S
N1676      C1687   1.332       .  A
N1676     Co1686   2.038       .  S
C1680      N1696   1.342       .  A
C1680      C1692   1.452       .  S
C1680      C2635   1.419       .  S
Co1682    Cl1693   2.469       .  S
N1683      C1694   1.341       .  A
C1684      C2589   1.466       .  S
Co1686    Cl1693   2.432       .  S
C1694      C2650   1.416       .  S
C1697      N1715   1.376       .  A
C1697      C1734   1.426       .  S
C1697      C2894   1.463       .  S
N1698      N1715   1.344       .  A
N1698      N1720   1.323       .  A
N1698     Co1735   2.194       .  S
C1699      N1724   1.335       .  A
C1699      C1737   1.449       .  S
C1699      H1744   1.083       .  S
H1700      C1741   1.084       .  S
C1701      N1725   1.337       .  A
C1701      C1705   1.444       .  S
C1701      H1730   1.080       .  S
Co1702     N1720   2.032       .  S
Co1702     N1710   2.059       .  S
Co1702     N1742   2.039       .  S
Co1702     N1718   2.060       .  S
Co1702    Cl1746   2.429       .  S
N1703      C1741   1.336       .  A
N1703      N1710   1.315       .  A
N1703     Co1704   2.062       .  S
Co1704     N1707   2.061       .  S
Co1704     N1724   2.058       .  S
Co1704     N1711   2.066       .  S
Co1704    Cl1746   2.471       .  S
C1705      N1743   1.345       .  A
C1705      C2686   1.413       .  S
N1706      N1713   1.325       .  A
N1706      N1736   1.319       .  A
N1706     Co1739   2.041       .  S
N1707      N1725   1.315       .  A
N1707      N1743   1.321       .  A
N1708      C1737   1.342       .  A
N1708      N1718   1.321       .  A
H1709      C1734   1.081       .  S
N1710      N1731   1.321       .  A
N1711      N1729   1.315       .  A
N1711      N1716   1.321       .  A
C1712      N1716   1.345       .  A
C1712      C1740   1.447       .  S
C1712      C2676   1.416       .  S
N1713      C1728   1.368       .  A
N1713     Co1735   2.195       .  S
C1714      N1742   1.331       .  A
C1714      C1717   1.430       .  S
C1714      H1748   1.081       .  S
C1717      N1738   1.374       .  A
C1717      C2614   1.463       .  S
N1718      N1724   1.315       .  A
N1719      C1745   1.366       .  A
N1719      N1721   1.324       .  A
N1719     Co1735   2.190       .  S
N1720      C1734   1.329       .  A
N1721      N1749   1.319       .  A
N1721     Co1739   2.035       .  S
H1722      C1745   1.079       .  S
H1723      C1740   1.081       .  S
N1725     Co1739   2.056       .  S
N1726      N1738   1.342       .  A
N1726      N1742   1.324       .  A
N1726     Co1735   2.192       .  S
C1727      N1731   1.342       .  A
C1727      C1741   1.451       .  S
C1727      C2586   1.415       .  S
C1728      C1747   1.499       .  S
C1728      H1732   1.079       .  S
N1729      C1740   1.338       .  A
N1729     Co1739   2.061       .  S
C1733      N1749   1.330       .  A
C1733      C1745   1.496       .  S
C1733      C2583   1.466       .  S
Co1735    Cl1746   2.470       .  S
N1736      C1747   1.330       .  A
C1737      C2623   1.414       .  S
Co1739    Cl1746   2.432       .  S
C1747      C2865   1.472       .  S
C1750      N1768   1.377       .  A
C1750      C1787   1.427       .  S
C1750      C2884   1.467       .  S
N1751      N1768   1.344       .  A
N1751      N1773   1.323       .  A
N1751     Co1788   2.200       .  S
C1752      N1777   1.337       .  A
C1752      C1790   1.451       .  S
C1752      H1797   1.083       .  S
H1753      C1794   1.083       .  S
C1754      N1778   1.338       .  A
C1754      C1758   1.449       .  S
C1754      H1783   1.080       .  S
Co1755     N1773   2.034       .  S
Co1755     N1763   2.060       .  S
Co1755     N1795   2.034       .  S
Co1755     N1771   2.061       .  S
Co1755    Cl1799   2.428       .  S
N1756      C1794   1.337       .  A
N1756      N1763   1.314       .  A
N1756     Co1757   2.060       .  S
Co1757     N1760   2.059       .  S
Co1757     N1777   2.061       .  S
Co1757     N1764   2.062       .  S
Co1757    Cl1799   2.472       .  S
C1758      N1796   1.344       .  A
C1758      C2579   1.413       .  S
N1759      N1766   1.325       .  A
N1759      N1789   1.318       .  A
N1759     Co1792   2.034       .  S
N1760      N1778   1.315       .  A
N1760      N1796   1.319       .  A
N1761      C1790   1.343       .  A
N1761      N1771   1.321       .  A
H1762      C1787   1.080       .  S
N1763      N1784   1.321       .  A
N1764      N1782   1.315       .  A
N1764      N1769   1.321       .  A
C1765      N1769   1.344       .  A
C1765      C1793   1.446       .  S
C1765      C2698   1.418       .  S
N1766      C1781   1.367       .  A
N1766     Co1788   2.195       .  S
C1767      N1795   1.330       .  A
C1767      C1770   1.429       .  S
C1767      H1801   1.080       .  S
C1770      N1791   1.375       .  A
C1770      C2612   1.463       .  S
N1771      N1777   1.315       .  A
N1772      C1798   1.366       .  A
N1772      N1774   1.326       .  A
N1772     Co1788   2.192       .  S
N1773      C1787   1.330       .  A
N1774      N1802   1.319       .  A
N1774     Co1792   2.039       .  S
H1775      C1798   1.079       .  S
H1776      C1793   1.081       .  S
N1778     Co1792   2.063       .  S
N1779      N1791   1.343       .  A
N1779      N1795   1.323       .  A
N1779     Co1788   2.192       .  S
C1780      N1784   1.343       .  A
C1780      C1794   1.451       .  S
C1780      C2581   1.415       .  S
C1781      C1800   1.498       .  S
C1781      H1785   1.080       .  S
N1782      C1793   1.338       .  A
N1782     Co1792   2.061       .  S
C1786      N1802   1.330       .  A
C1786      C1798   1.495       .  S
C1786      C2578   1.465       .  S
Co1788    Cl1799   2.469       .  S
N1789      C1800   1.329       .  A
C1790      C2644   1.416       .  S
Co1792    Cl1799   2.432       .  S
C1800      C2874   1.468       .  S
C1803      N1821   1.342       .  A
C1803      C1840   1.447       .  S
C1803      C2573   1.411       .  S
N1804      N1821   1.318       .  A
N1804      N1826   1.315       .  A
N1804     Co1841   2.055       .  S
C1805      N1830   1.366       .  A
C1805      C1843   1.496       .  S
C1805      H1850   1.079       .  S
H1806      C1847   1.079       .  S
C1807      N1831   1.332       .  A
C1807      C1811   1.431       .  S
C1807      H1836   1.080       .  S
Co1808     N1826   2.059       .  S
Co1808     N1816   2.030       .  S
Co1808     N1848   2.055       .  S
Co1808     N1824   2.035       .  S
Co1808    Cl1852   2.438       .  S
N1809      C1847   1.367       .  A
N1809      N1816   1.324       .  A
N1809     Co1810   2.197       .  S
Co1810     N1813   2.189       .  S
Co1810     N1830   2.192       .  S
Co1810     N1817   2.193       .  S
Co1810    Cl1852   2.466       .  S
C1811      N1849   1.375       .  A
C1811      C2590   1.466       .  S
N1812      N1819   1.314       .  A
N1812      N1842   1.320       .  A
N1812     Co1845   2.058       .  S
N1813      N1831   1.324       .  A
N1813      N1849   1.343       .  A
N1814      C1843   1.329       .  A
N1814      N1824   1.318       .  A
H1815      C1840   1.080       .  S
N1816      N1837   1.318       .  A
N1817      N1835   1.323       .  A
N1817      N1822   1.343       .  A
C1818      N1822   1.375       .  A
C1818      C1846   1.431       .  S
C1818      C2691   1.466       .  S
N1819      C1834   1.336       .  A
N1819     Co1841   2.058       .  S
C1820      N1848   1.338       .  A
C1820      C1823   1.445       .  S
C1820      H1854   1.080       .  S
C1823      N1844   1.343       .  A
C1823      C2620   1.411       .  S
N1824      N1830   1.325       .  A
N1825      C1851   1.334       .  A
N1825      N1827   1.315       .  A
N1825     Co1841   2.053       .  S
N1826      C1840   1.338       .  A
N1827      N1855   1.322       .  A
N1827     Co1845   2.068       .  S
H1828      C1851   1.083       .  S
H1829      C1846   1.081       .  S
N1831     Co1845   2.044       .  S
N1832      N1844   1.319       .  A
N1832      N1848   1.315       .  A
N1832     Co1841   2.059       .  S
C1833      N1837   1.329       .  A
C1833      C1847   1.498       .  S
C1833      C2704   1.468       .  S
C1834      C1853   1.452       .  S
C1834      H1838   1.083       .  S
N1835      C1846   1.331       .  A
N1835     Co1845   2.037       .  S
C1839      N1855   1.346       .  A
C1839      C1851   1.448       .  S
C1839      C2594   1.415       .  S
Co1841    Cl1852   2.465       .  S
N1842      C1853   1.342       .  A
C1843      C2577   1.464       .  S
Co1845    Cl1852   2.428       .  S
C1853      C2575   1.415       .  S
C1856      N1874   1.375       .  A
C1856      C1893   1.430       .  S
C1856      C2916   1.466       .  S
N1857      N1874   1.343       .  A
N1857      N1879   1.323       .  A
N1857     Co1894   2.191       .  S
C1858      N1883   1.335       .  A
C1858      C1896   1.449       .  S
C1858      H1903   1.083       .  S
H1859      C1900   1.083       .  S
C1860      N1884   1.339       .  A
C1860      C1864   1.449       .  S
C1860      H1889   1.080       .  S
Co1861     N1879   2.039       .  S
Co1861     N1869   2.057       .  S
Co1861     N1901   2.028       .  S
Co1861     N1877   2.065       .  S
Co1861    Cl1905   2.434       .  S
N1862      C1900   1.338       .  A
N1862      N1869   1.315       .  A
N1862     Co1863   2.065       .  S
Co1863     N1866   2.056       .  S
Co1863     N1883   2.057       .  S
Co1863     N1870   2.057       .  S
Co1863    Cl1905   2.463       .  S
C1864      N1902   1.341       .  A
C1864      C2571   1.415       .  S
N1865      N1872   1.326       .  A
N1865      N1895   1.322       .  A
N1865     Co1898   2.052       .  S
N1866      N1884   1.315       .  A
N1866      N1902   1.319       .  A
N1867      C1896   1.345       .  A
N1867      N1877   1.323       .  A
H1868      C1893   1.081       .  S
N1869      N1890   1.321       .  A
N1870      N1888   1.315       .  A
N1870      N1875   1.318       .  A
C1871      N1875   1.342       .  A
C1871      C1899   1.455       .  S
C1871      C2658   1.417       .  S
N1872      C1887   1.366       .  A
N1872     Co1894   2.191       .  S
C1873      N1901   1.328       .  A
C1873      C1876   1.425       .  S
C1873      H1907   1.081       .  S
C1876      N1897   1.377       .  A
C1876      C2746   1.464       .  S
N1877      N1883   1.314       .  A
N1878      C1904   1.367       .  A
N1878      N1880   1.325       .  A
N1878     Co1894   2.194       .  S
N1879      C1893   1.331       .  A
N1880      N1908   1.317       .  A
N1880     Co1898   2.033       .  S
H1881      C1904   1.079       .  S
H1882      C1899   1.081       .  S
N1884     Co1898   2.059       .  S
N1885      N1897   1.344       .  A
N1885      N1901   1.323       .  A
N1885     Co1894   2.201       .  S
C1886      N1890   1.342       .  A
C1886      C1900   1.452       .  S
C1886      C2570   1.418       .  S
C1887      C1906   1.495       .  S
C1887      H1891   1.079       .  S
N1888      C1899   1.341       .  A
N1888     Co1898   2.073       .  S
C1892      N1908   1.328       .  A
C1892      C1904   1.498       .  S
C1892      C2716   1.464       .  S
Co1894    Cl1905   2.466       .  S
N1895      C1906   1.335       .  A
C1896      C2610   1.417       .  S
Co1898    Cl1905   2.438       .  S
C1906      C2860   1.473       .  S
C1909      N1927   1.377       .  A
C1909      C1946   1.423       .  S
C1909      C2702   1.462       .  S
N1910      N1927   1.344       .  A
N1910      N1932   1.322       .  A
N1910     Co1947   2.197       .  S
C1911      N1936   1.336       .  A
C1911      C1949   1.449       .  S
C1911      H1956   1.081       .  S
H1912      C1953   1.081       .  S
C1913      N1937   1.340       .  A
C1913      C1917   1.453       .  S
C1913      H1942   1.081       .  S
Co1914     N1932   2.025       .  S
Co1914     N1922   2.059       .  S
Co1914     N1954   2.037       .  S
Co1914     N1930   2.053       .  S
Co1914    Cl1958   2.426       .  S
N1915      C1953   1.337       .  A
N1915      N1922   1.314       .  A
N1915     Co1916   2.058       .  S
Co1916     N1919   2.053       .  S
Co1916     N1936   2.057       .  S
Co1916     N1923   2.062       .  S
Co1916    Cl1958   2.474       .  S
C1917      N1955   1.342       .  A
C1917      C2567   1.414       .  S
N1918      N1925   1.326       .  A
N1918      N1948   1.319       .  A
N1918     Co1951   2.037       .  S
N1919      N1937   1.314       .  A
N1919      N1955   1.318       .  A
N1920      C1949   1.340       .  A
N1920      N1930   1.320       .  A
H1921      C1946   1.079       .  S
N1922      N1943   1.321       .  A
N1923      N1941   1.315       .  A
N1923      N1928   1.321       .  A
C1924      N1928   1.345       .  A
C1924      C1952   1.445       .  S
C1924      C2565   1.415       .  S
N1925      C1940   1.367       .  A
N1925     Co1947   2.197       .  S
C1926      N1954   1.332       .  A
C1926      C1929   1.430       .  S
C1926      H1960   1.079       .  S
C1929      N1950   1.377       .  A
C1929      C2627   1.470       .  S
N1930      N1936   1.315       .  A
N1931      C1957   1.365       .  A
N1931      N1933   1.326       .  A
N1931     Co1947   2.189       .  S
N1932      C1946   1.327       .  A
N1933      N1961   1.320       .  A
N1933     Co1951   2.045       .  S
H1934      C1957   1.080       .  S
H1935      C1952   1.082       .  S
N1937     Co1951   2.067       .  S
N1938      N1950   1.344       .  A
N1938      N1954   1.323       .  A
N1938     Co1947   2.202       .  S
C1939      N1943   1.342       .  A
C1939      C1953   1.451       .  S
C1939      C2574   1.412       .  S
C1940      C1959   1.498       .  S
C1940      H1944   1.081       .  S
N1941      C1952   1.336       .  A
N1941     Co1951   2.059       .  S
C1945      N1961   1.332       .  A
C1945      C1957   1.494       .  S
C1945      C2672   1.467       .  S
Co1947    Cl1958   2.471       .  S
N1948      C1959   1.330       .  A
C1949      C2618   1.412       .  S
Co1951    Cl1958   2.428       .  S
C1959      C2637   1.469       .  S
C1962      N1980   1.342       .  A
C1962      C1999   1.450       .  S
C1962      C2563   1.414       .  S
N1963      N1980   1.319       .  A
N1963      N1985   1.315       .  A
N1963     Co2000   2.055       .  S
C1964      N1989   1.365       .  A
C1964      C2002   1.494       .  S
C1964      H2009   1.080       .  S
H1965      C2006   1.080       .  S
C1966      N1990   1.332       .  A
C1966      C1970   1.431       .  S
C1966      H1995   1.080       .  S
Co1967     N1985   2.065       .  S
Co1967     N1975   2.035       .  S
Co1967     N2007   2.059       .  S
Co1967     N1983   2.035       .  S
Co1967    Cl2011   2.438       .  S
N1968      C2006   1.365       .  A
N1968      N1975   1.325       .  A
N1968     Co1969   2.192       .  S
Co1969     N1972   2.191       .  S
Co1969     N1989   2.186       .  S
Co1969     N1976   2.192       .  S
Co1969    Cl2011   2.463       .  S
C1970      N2008   1.375       .  A
C1970      C2858   1.465       .  S
N1971      N1978   1.315       .  A
N1971      N2001   1.321       .  A
N1971     Co2004   2.062       .  S
N1972      N1990   1.323       .  A
N1972      N2008   1.343       .  A
N1973      C2002   1.330       .  A
N1973      N1983   1.318       .  A
H1974      C1999   1.082       .  S
N1975      N1996   1.318       .  A
N1976      N1994   1.323       .  A
N1976      N1981   1.343       .  A
C1977      N1981   1.375       .  A
C1977      C2005   1.432       .  S
C1977      C2786   1.468       .  S
N1978      C1993   1.337       .  A
N1978     Co2000   2.061       .  S
C1979      N2007   1.338       .  A
C1979      C1982   1.448       .  S
C1979      H2013   1.080       .  S
C1982      N2003   1.344       .  A
C1982      C2561   1.415       .  S
N1983      N1989   1.325       .  A
N1984      C2010   1.334       .  A
N1984      N1986   1.315       .  A
N1984     Co2000   2.053       .  S
N1985      C1999   1.339       .  A
N1986      N2014   1.322       .  A
N1986     Co2004   2.066       .  S
H1987      C2010   1.081       .  S
H1988      C2005   1.080       .  S
N1990     Co2004   2.040       .  S
N1991      N2003   1.320       .  A
N1991      N2007   1.314       .  A
N1991     Co2000   2.063       .  S
C1992      N1996   1.330       .  A
C1992      C2006   1.495       .  S
C1992      C2892   1.464       .  S
C1993      C2012   1.452       .  S
C1993      H1997   1.082       .  S
N1994      C2005   1.332       .  A
N1994     Co2004   2.043       .  S
C1998      N2014   1.344       .  A
C1998      C2010   1.446       .  S
C1998      C2662   1.415       .  S
Co2000    Cl2011   2.465       .  S
N2001      C2012   1.343       .  A
C2002      C2820   1.463       .  S
Co2004    Cl2011   2.432       .  S
C2012      C2572   1.415       .  S
C2015      N2033   1.376       .  A
C2015      C2052   1.428       .  S
C2015      C2634   1.466       .  S
N2016      N2033   1.344       .  A
N2016      N2038   1.323       .  A
N2016     Co2053   2.199       .  S
C2017      N2042   1.336       .  A
C2017      C2055   1.450       .  S
C2017      H2062   1.082       .  S
H2018      C2059   1.081       .  S
C2019      N2043   1.339       .  A
C2019      C2023   1.449       .  S
C2019      H2048   1.082       .  S
Co2020     N2038   2.032       .  S
Co2020     N2028   2.058       .  S
Co2020     N2060   2.037       .  S
Co2020     N2036   2.057       .  S
Co2020    Cl2064   2.432       .  S
N2021      C2059   1.338       .  A
N2021      N2028   1.315       .  A
N2021     Co2022   2.064       .  S
Co2022     N2025   2.057       .  S
Co2022     N2042   2.058       .  S
Co2022     N2029   2.061       .  S
Co2022    Cl2064   2.471       .  S
C2023      N2061   1.342       .  A
C2023      C2576   1.415       .  S
N2024      N2031   1.327       .  A
N2024      N2054   1.321       .  A
N2024     Co2057   2.047       .  S
N2025      N2043   1.315       .  A
N2025      N2061   1.319       .  A
N2026      C2055   1.342       .  A
N2026      N2036   1.321       .  A
H2027      C2052   1.079       .  S
N2028      N2049   1.321       .  A
N2029      N2047   1.315       .  A
N2029      N2034   1.320       .  A
C2030      N2034   1.344       .  A
C2030      C2058   1.451       .  S
C2030      C2596   1.418       .  S
N2031      C2046   1.367       .  A
N2031     Co2053   2.202       .  S
C2032      N2060   1.332       .  A
C2032      C2035   1.430       .  S
C2032      H2066   1.079       .  S
C2035      N2056   1.379       .  A
C2035      C2560   1.473       .  S
N2036      N2042   1.314       .  A
N2037      C2063   1.368       .  A
N2037      N2039   1.325       .  A
N2037     Co2053   2.199       .  S
N2038      C2052   1.331       .  A
N2039      N2067   1.318       .  A
N2039     Co2057   2.033       .  S
H2040      C2063   1.080       .  S
H2041      C2058   1.080       .  S
N2043     Co2057   2.061       .  S
N2044      N2056   1.346       .  A
N2044      N2060   1.323       .  A
N2044     Co2053   2.207       .  S
C2045      N2049   1.340       .  A
C2045      C2059   1.451       .  S
C2045      C2568   1.415       .  S
C2046      C2065   1.497       .  S
C2046      H2050   1.080       .  S
N2047      C2058   1.340       .  A
N2047     Co2057   2.072       .  S
C2051      N2067   1.328       .  A
C2051      C2063   1.499       .  S
C2051      C2555   1.468       .  S
Co2053    Cl2064   2.468       .  S
N2054      C2065   1.333       .  A
C2055      C2557   1.414       .  S
Co2057    Cl2064   2.437       .  S
C2065      C2588   1.474       .  S
C2068      N2086   1.343       .  A
C2068      C2105   1.453       .  S
C2068      C2569   1.418       .  S
N2069      N2086   1.319       .  A
N2069      N2091   1.315       .  A
N2069     Co2106   2.060       .  S
C2070      N2095   1.367       .  A
C2070      C2108   1.498       .  S
C2070      H2115   1.081       .  S
H2071      C2112   1.080       .  S
C2072      N2096   1.333       .  A
C2072      C2076   1.432       .  S
C2072      H2101   1.079       .  S
Co2073     N2091   2.069       .  S
Co2073     N2081   2.042       .  S
Co2073     N2113   2.067       .  S
Co2073     N2089   2.041       .  S
Co2073    Cl2117   2.436       .  S
N2074      C2112   1.363       .  A
N2074      N2081   1.326       .  A
N2074     Co2075   2.182       .  S
Co2075     N2078   2.200       .  S
Co2075     N2095   2.198       .  S
Co2075     N2082   2.203       .  S
Co2075    Cl2117   2.465       .  S
C2076      N2114   1.376       .  A
C2076      C2888   1.471       .  S
N2077      N2084   1.314       .  A
N2077      N2107   1.321       .  A
N2077     Co2110   2.059       .  S
N2078      N2096   1.323       .  A
N2078      N2114   1.344       .  A
N2079      C2108   1.330       .  A
N2079      N2089   1.319       .  A
H2080      C2105   1.083       .  S
N2081      N2102   1.319       .  A
N2082      N2100   1.322       .  A
N2082      N2087   1.346       .  A
C2083      N2087   1.379       .  A
C2083      C2111   1.430       .  S
C2083      C2559   1.473       .  S
N2084      C2099   1.337       .  A
N2084     Co2106   2.057       .  S
C2085      N2113   1.340       .  A
C2085      C2088   1.451       .  S
C2085      H2119   1.081       .  S
C2088      N2109   1.341       .  A
C2088      C2604   1.414       .  S
N2089      N2095   1.327       .  A
N2090      C2116   1.336       .  A
N2090      N2092   1.315       .  A
N2090     Co2106   2.061       .  S
N2091      C2105   1.340       .  A
N2092      N2120   1.321       .  A
N2092     Co2110   2.061       .  S
H2093      C2116   1.081       .  S
H2094      C2111   1.079       .  S
N2096     Co2110   2.042       .  S
N2097      N2109   1.318       .  A
N2097      N2113   1.314       .  A
N2097     Co2106   2.054       .  S
C2098      N2102   1.332       .  A
C2098      C2112   1.490       .  S
C2098      C2914   1.461       .  S
C2099      C2118   1.450       .  S
C2099      H2103   1.082       .  S
N2100      C2111   1.332       .  A
N2100     Co2110   2.035       .  S
C2104      N2120   1.343       .  A
C2104      C2116   1.450       .  S
C2104      C2553   1.415       .  S
Co2106    Cl2117   2.467       .  S
N2107      C2118   1.341       .  A
C2108      C2551   1.470       .  S
Co2110    Cl2117   2.434       .  S
C2118      C2564   1.414       .  S
C2121      N2139   1.377       .  A
C2121      C2158   1.427       .  S
C2121      C2846   1.466       .  S
N2122      N2139   1.344       .  A
N2122      N2144   1.323       .  A
N2122     Co2159   2.201       .  S
C2123      N2148   1.336       .  A
C2123      C2161   1.452       .  S
C2123      H2168   1.083       .  S
H2124      C2165   1.083       .  S
C2125      N2149   1.339       .  A
C2125      C2129   1.449       .  S
C2125      H2154   1.079       .  S
Co2126     N2144   2.033       .  S
Co2126     N2134   2.058       .  S
Co2126     N2166   2.034       .  S
Co2126     N2142   2.053       .  S
Co2126    Cl2170   2.427       .  S
N2127      C2165   1.337       .  A
N2127      N2134   1.314       .  A
N2127     Co2128   2.063       .  S
Co2128     N2131   2.061       .  S
Co2128     N2148   2.060       .  S
Co2128     N2135   2.062       .  S
Co2128    Cl2170   2.470       .  S
C2129      N2167   1.344       .  A
C2129      C2562   1.415       .  S
N2130      N2137   1.325       .  A
N2130      N2160   1.317       .  A
N2130     Co2163   2.029       .  S
N2131      N2149   1.315       .  A
N2131      N2167   1.320       .  A
N2132      C2161   1.341       .  A
N2132      N2142   1.320       .  A
H2133      C2158   1.080       .  S
N2134      N2155   1.321       .  A
N2135      N2153   1.314       .  A
N2135      N2140   1.320       .  A
C2136      N2140   1.343       .  A
C2136      C2164   1.448       .  S
C2136      C2554   1.415       .  S
N2137      C2152   1.367       .  A
N2137     Co2159   2.194       .  S
C2138      N2166   1.331       .  A
C2138      C2141   1.429       .  S
C2138      H2172   1.080       .  S
C2141      N2162   1.377       .  A
C2141      C2598   1.469       .  S
N2142      N2148   1.314       .  A
N2143      C2169   1.367       .  A
N2143      N2145   1.326       .  A
N2143     Co2159   2.198       .  S
N2144      C2158   1.330       .  A
N2145      N2173   1.319       .  A
N2145     Co2163   2.037       .  S
H2146      C2169   1.080       .  S
H2147      C2164   1.080       .  S
N2149     Co2163   2.064       .  S
N2150      N2162   1.344       .  A
N2150      N2166   1.322       .  A
N2150     Co2159   2.198       .  S
C2151      N2155   1.342       .  A
C2151      C2165   1.452       .  S
C2151      C2659   1.418       .  S
C2152      C2171   1.497       .  S
C2152      H2156   1.079       .  S
N2153      C2164   1.339       .  A
N2153     Co2163   2.058       .  S
C2157      N2173   1.330       .  A
C2157      C2169   1.497       .  S
C2157      C2556   1.468       .  S
Co2159    Cl2170   2.469       .  S
N2160      C2171   1.327       .  A
C2161      C2606   1.411       .  S
Co2163    Cl2170   2.433       .  S
C2171      C2816   1.462       .  S
C2174      N2192   1.341       .  A
C2174      C2211   1.451       .  S
C2174      C2566   1.413       .  S
N2175      N2192   1.318       .  A
N2175      N2197   1.315       .  A
N2175     Co2212   2.055       .  S
C2176      N2201   1.368       .  A
C2176      C2214   1.499       .  S
C2176      H2221   1.081       .  S
H2177      C2218   1.080       .  S
C2178      N2202   1.330       .  A
C2178      C2182   1.428       .  S
C2178      H2207   1.079       .  S
Co2179     N2197   2.064       .  S
Co2179     N2187   2.036       .  S
Co2179     N2219   2.062       .  S
Co2179     N2195   2.037       .  S
Co2179    Cl2223   2.436       .  S
N2180      C2218   1.364       .  A
N2180      N2187   1.325       .  A
N2180     Co2181   2.187       .  S
Co2181     N2184   2.200       .  S
Co2181     N2201   2.197       .  S
Co2181     N2188   2.192       .  S
Co2181    Cl2223   2.464       .  S
C2182      N2220   1.376       .  A
C2182      C2584   1.465       .  S
N2183      N2190   1.315       .  A
N2183      N2213   1.322       .  A
N2183     Co2216   2.063       .  S
N2184      N2202   1.323       .  A
N2184      N2220   1.344       .  A
N2185      C2214   1.329       .  A
N2185      N2195   1.318       .  A
H2186      C2211   1.081       .  S
N2187      N2208   1.319       .  A
N2188      N2206   1.323       .  A
N2188      N2193   1.344       .  A
C2189      N2193   1.376       .  A
C2189      C2217   1.429       .  S
C2189      C2602   1.468       .  S
N2190      C2205   1.336       .  A
N2190     Co2212   2.059       .  S
C2191      N2219   1.338       .  A
C2191      C2194   1.449       .  S
C2191      H2225   1.082       .  S
C2194      N2215   1.344       .  A
C2194      C2558   1.414       .  S
N2195      N2201   1.325       .  A
N2196      C2222   1.337       .  A
N2196      N2198   1.315       .  A
N2196     Co2212   2.061       .  S
N2197      C2211   1.340       .  A
N2198      N2226   1.321       .  A
N2198     Co2216   2.059       .  S
H2199      C2222   1.082       .  S
H2200      C2217   1.079       .  S
N2202     Co2216   2.031       .  S
N2203      N2215   1.319       .  A
N2203      N2219   1.315       .  A
N2203     Co2212   2.058       .  S
C2204      N2208   1.331       .  A
C2204      C2218   1.492       .  S
C2204      C2674   1.461       .  S
C2205      C2224   1.448       .  S
C2205      H2209   1.081       .  S
N2206      C2217   1.331       .  A
N2206     Co2216   2.039       .  S
C2210      N2226   1.341       .  A
C2210      C2222   1.453       .  S
C2210      C2600   1.417       .  S
Co2212    Cl2223   2.466       .  S
N2213      C2224   1.343       .  A
C2214      C2552   1.469       .  S
Co2216    Cl2223   2.432       .  S
C2224      C2615   1.417       .  S
C2227      N2245   1.343   1_556  A
C2227      C2264   1.448       .  S
C2227      C2582   1.414   1_556  S
N2228      N2245   1.319   1_556  A
N2228      N2250   1.314       .  A
N2228     Co2265   2.060       .  S
C2229      N2254   1.369       .  A
C2229      C2267   1.501       .  S
C2229      H2274   1.080       .  S
H2230      C2271   1.080       .  S
C2231      N2255   1.330       .  A
C2231      C2235   1.426       .  S
C2231      H2260   1.079       .  S
Co2232     N2250   2.059       .  S
Co2232     N2240   2.030       .  S
Co2232     N2272   2.060       .  S
Co2232     N2248   2.029       .  S
Co2232    Cl2276   2.429       .  S
N2233      C2271   1.368       .  A
N2233      N2240   1.325       .  A
N2233     Co2234   2.201       .  S
Co2234     N2237   2.205       .  S
Co2234     N2254   2.203       .  S
Co2234     N2241   2.200       .  S
Co2234    Cl2276   2.473       .  S
C2235      N2273   1.378       .  A
C2235      C2862   1.469       .  S
N2236      N2243   1.314       .  A
N2236      N2266   1.321       .  A
N2236     Co2269   2.057       .  S
N2237      N2255   1.323       .  A
N2237      N2273   1.345       .  A
N2238      C2267   1.326       .  A
N2238      N2248   1.316       .  A
H2239      C2264   1.080       .  S
N2240      N2261   1.318       .  A
N2241      N2259   1.323       .  A
N2241      N2246   1.345       .  A
C2242      N2246   1.377       .  A
C2242      C2270   1.427       .  S
C2242      C2838   1.466       .  S
N2243      C2258   1.337   1_556  A
N2243     Co2265   2.060       .  S
C2244      N2272   1.338       .  A
C2244      C2247   1.447       .  S
C2244      H2278   1.079       .  S
C2247      N2268   1.344   1_556  A
C2247      C2647   1.415   1_556  S
N2248      N2254   1.325       .  A
N2249      C2275   1.337   1_556  A
N2249      N2251   1.315       .  A
N2249     Co2265   2.062       .  S
N2250      C2264   1.339       .  A
N2251      N2279   1.322       .  A
N2251     Co2269   2.060       .  S
H2252      C2275   1.082       .  S
H2253      C2270   1.079       .  S
N2255     Co2269   2.033       .  S
N2256      N2268   1.320   1_556  A
N2256      N2272   1.315       .  A
N2256     Co2265   2.061       .  S
C2257      N2261   1.328       .  A
C2257      C2271   1.500       .  S
C2257      C2880   1.469       .  S
C2258      C2277   1.451       .  S
C2258      H2262   1.082       .  S
N2259      C2270   1.330       .  A
N2259     Co2269   2.033       .  S
C2263      N2279   1.343   1_554  A
C2263      C2275   1.451       .  S
C2263      C2667   1.417       .  S
Co2265    Cl2276   2.473       .  S
N2266      C2277   1.341   1_556  A
C2267      C2826   1.466       .  S
Co2269    Cl2276   2.424       .  S
C2277      C2550   1.415       .  S
C2280      N2298   1.375       .  A
C2280      C2317   1.432       .  S
C2280      C2928   1.468       .  S
N2281      N2298   1.343       .  A
N2281      N2303   1.324       .  A
N2281     Co2318   2.195       .  S
C2282      N2307   1.335   1_545  A
C2282      C2320   1.450   1_545  S
C2282      H2327   1.082       .  S
H2283      C2324   1.083       .  S
C2284      N2308   1.339       .  A
C2284      C2288   1.450       .  S
C2284      H2313   1.081       .  S
Co2285     N2303   2.042       .  S
Co2285     N2293   2.058       .  S
Co2285     N2325   2.032       .  S
Co2285     N2301   2.063       .  S
Co2285    Cl2329   2.431       .  S
N2286      C2324   1.336   1_565  A
N2286      N2293   1.315       .  A
N2286     Co2287   2.058       .  S
Co2287     N2290   2.060       .  S
Co2287     N2307   2.058       .  S
Co2287     N2294   2.060       .  S
Co2287    Cl2329   2.467       .  S
C2288      N2326   1.343   1_565  A
C2288      C2652   1.416   1_565  S
N2289      N2296   1.325       .  A
N2289      N2319   1.317       .  A
N2289     Co2322   2.028       .  S
N2290      N2308   1.315       .  A
N2290      N2326   1.320   1_565  A
N2291      C2320   1.344       .  A
N2291      N2301   1.322       .  A
H2292      C2317   1.080       .  S
N2293      N2314   1.321       .  A
N2294      N2312   1.314       .  A
N2294      N2299   1.320   1_565  A
C2295      N2299   1.343   1_565  A
C2295      C2323   1.446       .  S
C2295      C2548   1.414   1_565  S
N2296      C2311   1.366       .  A
N2296     Co2318   2.192       .  S
C2297      N2325   1.330       .  A
C2297      C2300   1.428       .  S
C2297      H2331   1.080       .  S
C2300      N2321   1.378       .  A
C2300      C2739   1.469       .  S
N2301      N2307   1.315       .  A
N2302      C2328   1.368       .  A
N2302      N2304   1.326       .  A
N2302     Co2318   2.199       .  S
N2303      C2317   1.333       .  A
N2304      N2332   1.318       .  A
N2304     Co2322   2.036       .  S
H2305      C2328   1.080       .  S
H2306      C2323   1.079       .  S
N2308     Co2322   2.062       .  S
N2309      N2321   1.345       .  A
N2309      N2325   1.323       .  A
N2309     Co2318   2.201       .  S
C2310      N2314   1.342       .  A
C2310      C2324   1.449   1_565  S
C2310      C2592   1.416   1_565  S
C2311      C2330   1.495       .  S
C2311      H2315   1.079       .  S
N2312      C2323   1.339       .  A
N2312     Co2322   2.057       .  S
C2316      N2332   1.328       .  A
C2316      C2328   1.499       .  S
C2316      C2718   1.467       .  S
Co2318    Cl2329   2.467       .  S
N2319      C2330   1.328       .  A
C2320      C2712   1.415   1_565  S
Co2322    Cl2329   2.436       .  S
C2330      C2912   1.462       .  S
C2333      N2351   1.376       .  A
C2333      C2370   1.426       .  S
C2333      C2909   1.462       .  S
N2334      N2351   1.344       .  A
N2334      N2356   1.323       .  A
N2334     Co2371   2.194       .  S
C2335      N2360   1.336   1_554  A
C2335      C2373   1.449       .  S
C2335      H2380   1.082       .  S
H2336      C2377   1.082       .  S
C2337      N2361   1.339       .  A
C2337      C2341   1.448       .  S
C2337      H2366   1.081       .  S
Co2338     N2356   2.032       .  S
Co2338     N2346   2.066       .  S
Co2338     N2378   2.038       .  S
Co2338     N2354   2.059       .  S
Co2338    Cl2382   2.425       .  S
N2339      C2377   1.336   1_556  A
N2339      N2346   1.315       .  A
N2339     Co2340   2.060       .  S
Co2340     N2343   2.059       .  S
Co2340     N2360   2.059       .  S
Co2340     N2347   2.061       .  S
Co2340    Cl2382   2.475       .  S
C2341      N2379   1.344   1_556  A
C2341      C2585   1.414   1_556  S
N2342      N2349   1.325       .  A
N2342      N2372   1.318       .  A
N2342     Co2375   2.029       .  S
N2343      N2361   1.314       .  A
N2343      N2379   1.319   1_556  A
N2344      C2373   1.342   1_556  A
N2344      N2354   1.322       .  A
H2345      C2370   1.079       .  S
N2346      N2367   1.322       .  A
N2347      N2365   1.314       .  A
N2347      N2352   1.320   1_556  A
C2348      N2352   1.344   1_556  A
C2348      C2376   1.445       .  S
C2348      C2630   1.412   1_556  S
N2349      C2364   1.368       .  A
N2349     Co2371   2.201       .  S
C2350      N2378   1.332       .  A
C2350      C2353   1.430       .  S
C2350      H2384   1.079       .  S
C2353      N2374   1.377       .  A
C2353      C2790   1.470       .  S
N2354      N2360   1.315       .  A
N2355      C2381   1.367       .  A
N2355      N2357   1.325       .  A
N2355     Co2371   2.195       .  S
N2356      C2370   1.329       .  A
N2357      N2385   1.318       .  A
N2357     Co2375   2.035       .  S
H2358      C2381   1.080       .  S
H2359      C2376   1.079       .  S
N2361     Co2375   2.061       .  S
N2362      N2374   1.345       .  A
N2362      N2378   1.324       .  A
N2362     Co2371   2.204       .  S
C2363      N2367   1.344       .  A
C2363      C2377   1.450   1_556  S
C2363      C2684   1.417   1_556  S
C2364      C2383   1.500       .  S
C2364      H2368   1.080       .  S
N2365      C2376   1.337       .  A
N2365     Co2375   2.053       .  S
C2369      N2385   1.329       .  A
C2369      C2381   1.497       .  S
C2369      C2807   1.466       .  S
Co2371    Cl2382   2.474       .  S
N2372      C2383   1.327       .  A
C2373      C2546   1.416       .  S
Co2375    Cl2382   2.428       .  S
C2383      C2898   1.468       .  S
C2386      N2404   1.342       .  A
C2386      C2423   1.453       .  S
C2386      C2632   1.415       .  S
N2387      N2404   1.318       .  A
N2387      N2409   1.314       .  A
N2387     Co2424   2.053       .  S
C2388      N2413   1.366       .  A
C2388      C2426   1.496       .  S
C2388      H2433   1.079       .  S
H2389      C2430   1.080       .  S
C2390      N2414   1.330       .  A
C2390      C2394   1.426       .  S
C2390      H2419   1.080       .  S
Co2391     N2409   2.071       .  S
Co2391     N2399   2.034       .  S
Co2391     N2431   2.061       .  S
Co2391     N2407   2.049       .  S
Co2391    Cl2435   2.434       .  S
N2392      C2430   1.367       .  A
N2392      N2399   1.325       .  A
N2392     Co2393   2.195       .  S
Co2393     N2396   2.202       .  S
Co2393     N2413   2.193       .  S
Co2393     N2400   2.189       .  S
Co2393    Cl2435   2.470       .  S
C2394      N2432   1.378       .  A
C2394      C2792   1.467       .  S
N2395      N2402   1.314       .  A
N2395      N2425   1.323       .  A
N2395     Co2428   2.070       .  S
N2396      N2414   1.323       .  A
N2396      N2432   1.345       .  A
N2397      C2426   1.333       .  A
N2397      N2407   1.321       .  A
H2398      C2423   1.080       .  S
N2399      N2420   1.318       .  A
N2400      N2418   1.324       .  A
N2400      N2405   1.342       .  A
C2401      N2405   1.373       .  A
C2401      C2429   1.434       .  S
C2401      C2780   1.466       .  S
N2402      C2417   1.335       .  A
N2402     Co2424   2.056       .  S
C2403      N2431   1.338       .  A
C2403      C2406   1.446       .  S
C2403      H2437   1.081       .  S
C2406      N2427   1.344       .  A
C2406      C2680   1.416   1_655  S
N2407      N2413   1.326       .  A
N2408      C2434   1.336   1_655  A
N2408      N2410   1.315       .  A
N2408     Co2424   2.056       .  S
N2409      C2423   1.341       .  A
N2410      N2438   1.322       .  A
N2410     Co2428   2.063       .  S
H2411      C2434   1.083       .  S
H2412      C2429   1.080       .  S
N2414     Co2428   2.034       .  S
N2415      N2427   1.321       .  A
N2415      N2431   1.315       .  A
N2415     Co2424   2.060       .  S
C2416      N2420   1.329       .  A
C2416      C2430   1.498       .  S
C2416      C2798   1.467       .  S
C2417      C2436   1.450       .  S
C2417      H2421   1.083   1_655  S
N2418      C2429   1.333       .  A
N2418     Co2428   2.046       .  S
C2422      N2438   1.344       .  A
C2422      C2434   1.448   1_655  S
C2422      C2688   1.416   1_655  S
Co2424    Cl2435   2.471       .  S
N2425      C2436   1.345       .  A
C2426      C2768   1.472       .  S
Co2428    Cl2435   2.430       .  S
C2436      C2545   1.416   1_655  S
C2439      N2457   1.344   1_655  A
C2439      C2476   1.449       .  S
C2439      C2639   1.418   1_655  S
N2440      N2457   1.320   1_655  A
N2440      N2462   1.315       .  A
N2440     Co2477   2.062       .  S
C2441      N2466   1.369       .  A
C2441      C2479   1.501       .  S
C2441      H2486   1.080       .  S
H2442      C2483   1.080       .  S
C2443      N2467   1.333       .  A
C2443      C2447   1.433       .  S
C2443      H2472   1.079       .  S
Co2444     N2462   2.060       .  S
Co2444     N2452   2.042       .  S
Co2444     N2484   2.067       .  S
Co2444     N2460   2.029       .  S
Co2444    Cl2488   2.431       .  S
N2445      C2483   1.364       .  A
N2445      N2452   1.326       .  A
N2445     Co2446   2.187       .  S
Co2446     N2449   2.199       .  S
Co2446     N2466   2.201       .  S
Co2446     N2453   2.197       .  S
Co2446    Cl2488   2.471       .  S
C2447      N2485   1.375       .  A
C2447      C2840   1.469       .  S
N2448      N2455   1.315       .  A
N2448      N2478   1.321       .  A
N2448     Co2481   2.058       .  S
N2449      N2467   1.324       .  A
N2449      N2485   1.343       .  A
N2450      C2479   1.327       .  A
N2450      N2460   1.317       .  A
H2451      C2476   1.082       .  S
N2452      N2473   1.319       .  A
N2453      N2471   1.322       .  A
N2453      N2458   1.345       .  A
C2454      N2458   1.378       .  A
C2454      C2482   1.428       .  S
C2454      C2720   1.469       .  S
N2455      C2470   1.338   1_655  A
N2455     Co2477   2.061       .  S
C2456      N2484   1.340       .  A
C2456      C2459   1.453       .  S
C2456      H2490   1.080       .  S
C2459      N2480   1.343       .  A
C2459      C2710   1.415       .  S
N2460      N2466   1.326       .  A
N2461      C2487   1.336       .  A
N2461      N2463   1.314       .  A
N2461     Co2477   2.057       .  S
N2462      C2476   1.338       .  A
N2463      N2491   1.321       .  A
N2463     Co2481   2.062       .  S
H2464      C2487   1.081   1_455  S
H2465      C2482   1.079       .  S
N2467     Co2481   2.041       .  S
N2468      N2480   1.319       .  A
N2468      N2484   1.314       .  A
N2468     Co2477   2.055       .  S
C2469      N2473   1.332       .  A
C2469      C2483   1.493       .  S
C2469      C2856   1.464       .  S
C2470      C2489   1.451   1_455  S
C2470      H2474   1.082       .  S
N2471      C2482   1.330       .  A
N2471     Co2481   2.033       .  S
C2475      N2491   1.344       .  A
C2475      C2487   1.451       .  S
C2475      C2547   1.413       .  S
Co2477    Cl2488   2.471       .  S
N2478      C2489   1.341       .  A
C2479      C2728   1.467       .  S
Co2481    Cl2488   2.428       .  S
C2489      C2655   1.417   1_655  S
C2492      N2510   1.378       .  A
C2492      C2529   1.426       .  S
C2492      C2869   1.469       .  S
N2493      N2510   1.345       .  A
N2493      N2515   1.323       .  A
N2493     Co2530   2.204       .  S
C2494      N2519   1.336   1_545  A
C2494      C2532   1.450   1_545  S
C2494      H2539   1.082       .  S
H2495      C2536   1.081       .  S
C2496      N2520   1.340       .  A
C2496      C2500   1.452       .  S
C2496      H2525   1.081       .  S
Co2497     N2515   2.033       .  S
Co2497     N2505   2.060       .  S
Co2497     N2537   2.032       .  S
Co2497     N2513   2.063       .  S
Co2497    Cl2541   2.429       .  S
N2498      C2536   1.336   1_565  A
N2498      N2505   1.314       .  A
N2498     Co2499   2.060       .  S
Co2499     N2502   2.054       .  S
Co2499     N2519   2.057       .  S
Co2499     N2506   2.060       .  S
Co2499    Cl2541   2.472       .  S
C2500      N2538   1.342   1_565  A
C2500      C2549   1.415   1_565  S
N2501      N2508   1.326       .  A
N2501      N2531   1.317       .  A
N2501     Co2534   2.030       .  S
N2502      N2520   1.314       .  A
N2502      N2538   1.319   1_565  A
N2503      C2532   1.344       .  A
N2503      N2513   1.322       .  A
H2504      C2529   1.079       .  S
N2505      N2526   1.322       .  A
N2506      N2524   1.315       .  A
N2506      N2511   1.320   1_565  A
C2507      N2511   1.344   1_565  A
C2507      C2535   1.447       .  S
C2507      C2670   1.414   1_565  S
N2508      C2523   1.366       .  A
N2508     Co2530   2.195       .  S
C2509      N2537   1.330       .  A
C2509      C2512   1.427       .  S
C2509      H2543   1.080       .  S
C2512      N2533   1.376       .  A
C2512      C2753   1.465       .  S
N2513      N2519   1.314       .  A
N2514      C2540   1.366       .  A
N2514      N2516   1.326       .  A
N2514     Co2530   2.193       .  S
N2515      C2529   1.330       .  A
N2516      N2544   1.321       .  A
N2516     Co2534   2.046       .  S
H2517      C2540   1.080       .  S
H2518      C2535   1.082       .  S
N2520     Co2534   2.067       .  S
N2521      N2533   1.344       .  A
N2521      N2537   1.323       .  A
N2521     Co2530   2.198       .  S
C2522      N2526   1.342       .  A
C2522      C2536   1.449   1_565  S
C2522      C2580   1.414   1_565  S
C2523      C2542   1.497       .  S
C2523      H2527   1.081       .  S
N2524      C2535   1.337       .  A
N2524     Co2534   2.058       .  S
C2528      N2544   1.333       .  A
C2528      C2540   1.495       .  S
C2528      C2784   1.470       .  S
Co2530    Cl2541   2.472       .  S
N2531      C2542   1.328       .  A
C2532      C2699   1.417   1_565  S
Co2534    Cl2541   2.430       .  S
C2542      C2864   1.464       .  S
C2545      C2546   1.193       .  T
C2547      C2548   1.192   1_655  T
C2549      C2550   1.193       .  T
C2551      C2552   1.228       .  T
C2553      C2554   1.193       .  T
C2555      C2556   1.228       .  T
C2557      C2558   1.192       .  T
C2559      C2560   1.231       .  T
C2561      C2562   1.193       .  T
C2563      C2564   1.192       .  T
C2565      C2566   1.192       .  T
C2567      C2568   1.193       .  T
C2569      C2570   1.195       .  T
C2571      C2572   1.193       .  T
C2573      C2574   1.191       .  T
C2575      C2576   1.193       .  T
C2577      C2578   1.226       .  T
C2579      C2580   1.192       .  T
C2581      C2582   1.193       .  T
C2583      C2584   1.226       .  T
C2585      C2586   1.193       .  T
C2587      C2588   1.230       .  T
C2589      C2590   1.226       .  T
C2591      C2592   1.194       .  T
C2593      C2594   1.193       .  T
C2595      C2596   1.195       .  T
C2597      C2598   1.228       .  T
C2599      C2600   1.194       .  T
C2601      C2602   1.228       .  T
C2603      C2604   1.193       .  T
C2605      C2606   1.191       .  T
C2607      C2608   1.226       .  T
C2609      C2610   1.194       .  T
C2611      C2612   1.225       .  T
C2613      C2614   1.225       .  T
C2615      C2616   1.194       .  T
C2617      C2618   1.191       .  T
C2619      C2620   1.190       .  T
C2621      C2622   1.192       .  T
C2623      C2624   1.192       .  T
C2625      C2626   1.228       .  T
C2627      C2628   1.228       .  T
C2629      C2630   1.191       .  T
C2631      C2632   1.193   1_455  T
C2633      C2634   1.227       .  T
C2635      C2636   1.196       .  T
C2637      C2638   1.228       .  T
C2639      C2640   1.195       .  T
C2641      C2642   1.232       .  T
C2643      C2644   1.193       .  T
C2645      C2646   1.228       .  T
C2647      C2648   1.193       .  T
C2649      C2650   1.194       .  T
C2651      C2652   1.194       .  T
C2653      C2654   1.193       .  T
C2655      C2656   1.194       .  T
C2657      C2658   1.195       .  T
C2659      C2660   1.194       .  T
C2661      C2662   1.193       .  T
C2663      C2664   1.193       .  T
C2665      C2666   1.193       .  T
C2667      C2668   1.194       .  T
C2669      C2670   1.192       .  T
C2671      C2672   1.226       .  T
C2673      C2674   1.223       .  T
C2675      C2676   1.193       .  T
C2677      C2678   1.194       .  T
C2679      C2680   1.193       .  T
C2681      C2682   1.192       .  T
C2683      C2684   1.194       .  T
C2685      C2686   1.192       .  T
C2687      C2688   1.193       .  T
C2689      C2690   1.229       .  T
C2691      C2692   1.226       .  T
C2693      C2694   1.193       .  T
C2695      C2696   1.193       .  T
C2697      C2698   1.194       .  T
C2699      C2700   1.194       .  T
C2701      C2702   1.225       .  T
C2703      C2704   1.228       .  T
C2705      C2706   1.196       .  T
C2707      C2708   1.194       .  T
C2709      C2710   1.193   1_455  T
C2711      C2712   1.193       .  T
C2713      C2714   1.229       .  T
C2715      C2716   1.226       .  T
C2717      C2718   1.227   1_655  T
C2719      C2720   1.228   1_565  T
C2721      C2722   1.227       .  T
C2723      C2724   1.227       .  T
C2725      C2726   1.228   1_455  T
C2727      C2728   1.228       .  T
C2729      C2730   1.194   1_565  T
C2731      C2732   1.229       .  T
C2733      C2734   1.230       .  T
C2735      C2736   1.228   1_565  T
C2737      C2738   1.192   1_465  T
C2739      C2740   1.229       .  T
C2741      C2742   1.195       .  T
C2743      C2744   1.197       .  T
C2745      C2746   1.226       .  T
C2747      C2748   1.224       .  T
C2749      C2750   1.228   1_565  T
C2751      C2752   1.194       .  T
C2753      C2754   1.226       .  T
C2755      C2756   1.231       .  T
C2757      C2758   1.191       .  T
C2759      C2760   1.193       .  T
C2761      C2762   1.225       .  T
C2763      C2764   1.225   1_655  T
C2765      C2766   1.195       .  T
C2767      C2768   1.229       .  T
C2769      C2770   1.227   1_565  T
C2771      C2772   1.227   1_655  T
C2773      C2774   1.195       .  T
C2775      C2776   1.193       .  T
C2777      C2778   1.189       .  T
C2779      C2780   1.225       .  T
C2781      C2782   1.192       .  T
C2783      C2784   1.228       .  T
C2785      C2786   1.227       .  T
C2787      C2788   1.225       .  T
C2789      C2790   1.229   1_655  T
C2791      C2792   1.228   1_556  T
C2793      C2794   1.229       .  T
C2795      C2796   1.224       .  T
C2797      C2798   1.227       .  T
C2799      C2800   1.194   1_554  T
C2801      C2802   1.228   1_655  T
C2803      C2804   1.227       .  T
C2805      C2806   1.231       .  T
C2807      C2808   1.227       .  T
C2809      C2810   1.192       .  T
C2811      C2812   1.226   1_556  T
C2813      C2814   1.192   1_554  T
C2815      C2816   1.224       .  T
C2817      C2818   1.194       .  T
C2819      C2820   1.225       .  T
C2821      C2822   1.225   1_554  T
C2823      C2824   1.193   1_556  T
C2825      C2826   1.227       .  T
C2827      C2828   1.223   1_455  T
C2829      C2830   1.226   1_554  T
C2831      C2832   1.194   1_554  T
C2833      C2834   1.194       .  T
C2835      C2836   1.193       .  T
C2837      C2838   1.227       .  T
C2839      C2840   1.227       .  T
C2841      C2842   1.227       .  T
C2843      C2844   1.190       .  T
C2845      C2846   1.227       .  T
C2847      C2848   1.194       .  T
C2849      C2850   1.226   1_455  T
C2851      C2852   1.191       .  T
C2853      C2854   1.192       .  T
C2855      C2856   1.225       .  T
C2857      C2858   1.226       .  T
C2859      C2860   1.230       .  T
C2861      C2862   1.228   1_565  T
C2863      C2864   1.225   1_556  T
C2865      C2866   1.230       .  T
C2867      C2868   1.226       .  T
C2869      C2870   1.229       .  T
C2871      C2872   1.194   1_554  T
C2873      C2874   1.228   1_565  T
C2875      C2876   1.230       .  T
C2877      C2878   1.229       .  T
C2879      C2880   1.228       .  T
C2881      C2882   1.194   1_545  T
C2883      C2884   1.227   1_556  T
C2885      C2886   1.195   1_546  T
C2887      C2888   1.229       .  T
C2889      C2890   1.193       .  T
C2891      C2892   1.225       .  T
C2893      C2894   1.225   1_556  T
C2895      C2896   1.190   1_556  T
C2897      C2898   1.228       .  T
C2899      C2900   1.230   1_545  T
C2901      C2902   1.227   1_556  T
C2903      C2904   1.197   1_556  T
C2905      C2906   1.194       .  T
C2907      C2908   1.193       .  T
C2909      C2910   1.225       .  T
C2911      C2912   1.224       .  T
C2913      C2914   1.223       .  T
C2915      C2916   1.227       .  T
C2917      C2918   1.190       .  T
C2919      C2920   1.195       .  T
C2921      C2922   1.225   1_565  T
C2923      C2924   1.193       .  T
C2925      C2926   1.191       .  T
C2927      C2928   1.227       .  T
