geometry optimzed in LAMMPS
_audit_creation_date              2020-11-30 
_audit_creation_method            'lammps2cif' 
_symmetry_space_group_name_H-M    'P1' 
_symmetry_Int_Tables_number       1 
_symmetry_cell_setting            triclinic 
loop_ 
_symmetry_equiv_pos_as_xyz 
  x,y,z 
_cell_length_a                    52.25414469 
_cell_length_b                    51.11688754475542 
_cell_length_c                    40.55281578371556 
_cell_angle_alpha                 90.09775189100831 
_cell_angle_beta                  89.97246514956026 
_cell_angle_gamma                 90.06686128929896 
loop_ 
_atom_site_label 
_atom_site_type_symbol 
_atom_site_fract_x 
_atom_site_fract_y 
_atom_site_fract_z 
_atom_site_charge 
O1          O  0.26015541  0.20733960  0.40529950    -0.79800
O2          O  0.26009359  0.20161969  0.59520783    -0.81400
O3          O  0.30290589  0.17295487  0.49983327    -0.78400
O4          O  0.21920243  0.17551082  0.49918460    -0.76800
O5          O  0.18928749  0.20795261  0.50182790    -0.78600
O6          O  0.33420321  0.20407070  0.50015687    -0.79500
O7          O  0.25917245  0.17219047  0.55253957    -0.80800
O8          O  0.26124794  0.17548109  0.44510181    -0.81100
Eu9        Eu  0.26159966  0.19575378  0.50000173     2.39200
O10         O  0.23655043  0.22155093  0.53561622    -0.88600
O11         O  0.28742252  0.22230378  0.46625426    -0.92200
C12         C  0.26028026  0.18314211  0.41481899     1.02500
C13         C  0.25866513  0.17803506  0.58350823     1.02300
C14         C  0.32659484  0.18009624  0.49965786     1.02200
C15         C  0.19592437  0.18376439  0.50009900     1.00100
H16         H  0.29823175  0.20865881  0.54856093     0.29800
O17         O  0.28766562  0.22028173  0.53567340    -1.01000
H18         H  0.22525253  0.21328026  0.45390261     0.29900
O19         O  0.23636482  0.22364243  0.46748344    -1.03500
O20         O  0.26375008  0.29015075  0.59911540    -0.80800
O21         O  0.26183871  0.29561979  0.40994682    -0.80300
O22         O  0.33512629  0.24576326  0.55525186    -0.78700
O23         O  0.19018588  0.24933602  0.55664663    -0.82100
O24         O  0.18909954  0.25041301  0.45051996    -0.79900
O25         O  0.33431522  0.24960096  0.44836049    -0.78600
O26         O  0.30637476  0.32045015  0.50846622    -0.80100
O27         O  0.22249449  0.32354292  0.50538691    -0.82000
O28         O  0.33642555  0.28824145  0.50652392    -0.78800
O29         O  0.19148501  0.29233331  0.50317501    -0.81400
O30         O  0.30581778  0.24519349  0.59704419    -0.77200
O31         O  0.30498355  0.25229104  0.40678846    -0.77200
O32         O  0.21806153  0.25102638  0.40834945    -0.76900
O33         O  0.21952075  0.24701247  0.59839021    -0.80400
O34         O  0.26549793  0.32178775  0.55916757    -0.79800
O35         O  0.26449233  0.32468222  0.45263317    -0.78100
Eu36       Eu  0.26252639  0.24643514  0.57150183     2.39800
Eu37       Eu  0.26191265  0.25058030  0.43350360     2.39600
Eu38       Eu  0.31337331  0.24685958  0.50204113     2.38400
Eu39       Eu  0.21173369  0.24958629  0.50310168     2.39900
Eu40       Eu  0.26378260  0.30082850  0.50498406     2.39800
O41         O  0.23718025  0.27649924  0.46967573    -0.92500
O42         O  0.28858342  0.27273334  0.53751067    -0.91400
C43         C  0.26488874  0.31434405  0.58951704     1.02600
C44         C  0.26322370  0.31923732  0.42157591     1.01400
C45         C  0.32913822  0.24525742  0.58605345     1.00800
C46         C  0.19623645  0.24841790  0.58745002     1.02800
C47         C  0.19477251  0.25058121  0.41958432     1.01700
C48         C  0.32833694  0.25203235  0.41771824     1.00500
C49         C  0.32972154  0.31241690  0.50873771     1.00600
C50         C  0.19884673  0.31630562  0.50428255     1.03200
H51         H  0.29951472  0.28630620  0.45677348     0.30600
O52         O  0.28857590  0.27507041  0.46931362    -1.04700
H53         H  0.22702119  0.28551638  0.55220359     0.32600
O54         O  0.23750970  0.27459723  0.53846486    -1.07200
N55         N  0.47419784  0.99578145  0.50341328    -0.36300
N56         N  0.01100422  0.03797572  0.49667085    -0.56800
N57         N  0.05231339  0.00048397  0.50641923    -0.36300
N58         N  0.01500070  0.45752764  0.50928517    -0.56800
C59         C  0.45889745  0.01526798  0.49264803     0.27300
C60         C  0.46093488  0.47227364  0.50186426     0.27300
C61         C  0.06580765  0.02204609  0.49801210     0.27300
C62         C  0.06693980  0.48039813  0.50405807     0.27300
C63         C  0.48934729  0.05223403  0.49942421     0.35900
C64         C  0.03063250  0.05484269  0.50102480     0.35900
C65         C  0.49543766  0.44117886  0.51618530     0.35900
C66         C  0.03663390  0.44434904  0.51628334     0.35900
C67         C  0.43587186  0.00490817  0.48171375    -0.21600
C68         C  0.43690120  0.47811742  0.48943312    -0.21600
C69         C  0.09060969  0.01497258  0.48978652    -0.21600
C70         C  0.08979488  0.48984456  0.49136255    -0.21600
C71         C  0.49526326  0.07834256  0.50473819    -0.22600
C72         C  0.02144221  0.07998530  0.50583603    -0.22600
C73         C  0.50469791  0.41745965  0.52758883    -0.22600
C74         C  0.03089077  0.41945923  0.52761039    -0.22600
C75         C  0.46435348  0.04221280  0.49547839    -0.18000
C76         C  0.46948427  0.44695655  0.51021667    -0.18000
C77         C  0.06140953  0.45374853  0.50957247    -0.18000
C78         C  0.05676754  0.04807846  0.49924515    -0.18000
H79         H  0.41951443  0.01546652  0.47226146     0.14900
H80         H  0.42187530  0.46449174  0.48282201     0.14900
H81         H  0.10612181  0.02776759  0.48248286     0.14900
H82         H  0.10600061  0.47856617  0.48275074     0.14900
H83         H  0.48210803  0.09454305  0.50744617     0.13200
H84         H  0.03246206  0.09768051  0.50961087     0.13200
H85         H  0.49376180  0.40041675  0.53482494     0.13200
H86         H  0.04420339  0.40423444  0.53457804     0.13200
H87         H  0.49094188  0.99817343  0.51687397     0.26500
H88         H  0.03431628  0.00040710  0.51722339     0.26500
O89         O  0.48790953  0.45466285  0.90589714    -0.79800
O90         O  0.48751374  0.45472488  0.09644043    -0.81400
O91         O  0.03028054  0.42570010  0.99969758    -0.78400
O92         O  0.44672925  0.42163556  0.00021580    -0.76800
O93         O  0.41442787  0.45147162  0.00090359    -0.78600
O94         O  0.05944852  0.45890642  0.99879729    -0.79500
O95         O  0.48782532  0.42411507  0.05510797    -0.80800
O96         O  0.48725659  0.42373284  0.94679995    -0.81100
Eu97       Eu  0.48748480  0.44552344  0.00103613     2.39200
O98         O  0.46078861  0.47047953  0.03576840    -0.88600
O99         O  0.01239488  0.47287790  0.96708927    -0.92200
C100        C  0.48771243  0.43071114  0.91620663     1.02500
C101        C  0.48806157  0.43077175  0.08583123     1.02300
C102        C  0.05345546  0.43440166  0.99852055     1.02200
C103        C  0.42279608  0.42771019  0.00006633     1.00100
H104        H  0.02335668  0.46256434  0.04840134     0.29800
O105        O  0.01204451  0.47321125  0.03505026    -1.01000
H106        H  0.45054075  0.45929904  0.95352944     0.29900
O107        O  0.46079424  0.47065927  0.96708287    -1.03500
O108        O  0.48325124  0.04477576  0.09352820    -0.80800
O109        O  0.48453257  0.04035563  0.90422928    -0.80300
O110        O  0.05785549  0.50038198  0.05485508    -0.78700
O111        O  0.41307735  0.49586525  0.05607225    -0.82100
O112        O  0.41312326  0.49514111  0.94734606    -0.79900
O113        O  0.05865628  0.50376052  0.94753633    -0.78600
O114        O  0.02304697  0.07472349  0.99816069    -0.80100
O115        O  0.43868356  0.06935655  0.99540242    -0.82000
O116        O  0.05523287  0.04457326  0.99969746    -0.78800
O117        O  0.40976724  0.03601823  0.99577676    -0.81400
O118        O  0.02825557  0.49988133  0.09635005    -0.77200
O119        O  0.02891181  0.99867476  0.90571106    -0.77200
O120        O  0.44350415  0.99450160  0.90502340    -0.76900
O121        O  0.44307309  0.49744435  0.09718358    -0.80400
O122        O  0.47970132  0.07453042  0.05160968    -0.79800
O123        O  0.48056213  0.07199235  0.94410609    -0.78100
Eu124      Eu  0.48546926  0.49861940  0.06980606     2.39800
Eu125      Eu  0.48570972  0.49821989  0.93286705     2.39600
Eu126      Eu  0.03656338  0.50077407  0.00107642     2.38400
Eu127      Eu  0.43388239  0.49532183  0.00160640     2.39900
Eu128      Eu  0.48209705  0.05108041  0.99865880     2.39800
O129        O  0.45852462  0.02227113  0.96529411    -0.92500
O130        O  0.00949337  0.02709138  0.03349852    -0.91400
C131        C  0.48080119  0.06845695  0.08247923     1.02600
C132        C  0.48228365  0.06445407  0.91377923     1.01400
C133        C  0.05160598  0.50007860  0.08564518     1.00800
C134        C  0.41967064  0.49686759  0.08676777     1.02800
C135        C  0.42003456  0.99346730  0.91510219     1.01700
C136        C  0.05208946  0.00147248  0.91639821     1.00500
C137        C  0.04692008  0.06824093  0.99868552     1.00600
C138        C  0.41554784  0.06047454  0.99444438     1.03200
H139        H  0.01982263  0.03687047  0.95209439     0.30600
O140        O  0.00954981  0.02549308  0.96577609    -1.04700
H141        H  0.44634687  0.03476116  0.04636003     0.32600
O142        O  0.45781082  0.02405809  0.03350660    -1.07200
N143        N  0.19567260  0.25165188  0.97756707    -0.36300
N144        N  0.23082476  0.20751124  0.97608980    -0.56800
N145        N  0.27321197  0.24407537  0.97825358    -0.36300
N146        N  0.23806803  0.28813777  0.97571139    -0.56800
C147        C  0.17916066  0.23185306  0.97156510     0.27300
C148        C  0.18308911  0.27427660  0.97177692     0.27300
C149        C  0.28578916  0.22152586  0.97203043     0.27300
C150        C  0.28960983  0.26387344  0.97177596     0.27300
C151        C  0.20876679  0.19449141  0.98174493     0.35900
C152        C  0.24999439  0.19041375  0.98191551     0.35900
C153        C  0.21896212  0.30511277  0.98226538     0.35900
C154        C  0.26004587  0.30102780  0.98215278     0.35900
C155        C  0.15574746  0.24200275  0.96181806    -0.21600
C156        C  0.15823391  0.26882166  0.96196520    -0.21600
C157        C  0.31051189  0.22707525  0.96163915    -0.21600
C158        C  0.31291758  0.25383427  0.96149249    -0.21600
C159        C  0.21393506  0.16882133  0.99054936    -0.22600
C160        C  0.24010301  0.16625636  0.99070849    -0.22600
C161        C  0.22882088  0.32901278  0.99228466    -0.22600
C162        C  0.25491931  0.32641925  0.99221525    -0.22600
C163        C  0.18401806  0.20508589  0.97752132    -0.18000
C164        C  0.19275239  0.29960793  0.97818895    -0.18000
C165        C  0.28472576  0.29063863  0.97735378    -0.18000
C166        C  0.27625448  0.19609134  0.97789923    -0.18000
H167        H  0.13849094  0.23122831  0.95595327     0.14900
H168        H  0.14328719  0.28273636  0.95624732     0.14900
H169        H  0.32541912  0.21326371  0.95529672     0.14900
H170        H  0.33001637  0.26466010  0.95506486     0.14900
H171        H  0.20028750  0.15352279  0.99619335     0.13200
H172        H  0.25063007  0.14862933  0.99649121     0.13200
H173        H  0.21831998  0.34647083  0.99898834     0.13200
H174        H  0.26855858  0.34149407  0.99881786     0.13200
H175        H  0.21318308  0.24992545  0.98938800     0.26500
H176        H  0.25576980  0.24578084  0.99030941     0.26500
C177        C  0.03412578  0.24639265  0.27434577     0.86800
C178        C  0.02983519  0.22295974  0.25067303    -0.53400
C179        C  0.50802621  0.22437578  0.23210210     0.09700
C180        C  0.49198426  0.24900556  0.23911151     0.20700
C181        C  0.03249551  0.27042437  0.25163841    -0.54100
C182        C  0.51069781  0.27196485  0.23301683     0.09800
C183        C  0.50940732  0.24718752  0.29488304    -0.53700
C184        C  0.48747954  0.24857548  0.27667850     0.10400
H185        H  0.04220758  0.20616229  0.24842368     0.14900
H186        H  0.47410815  0.25010882  0.22437921     0.00700
H187        H  0.04736711  0.28525891  0.25084182     0.15200
H188        H  0.50924506  0.24688173  0.32166529     0.15000
C189        C  0.21147418  0.49852254  0.22982071     0.86800
C190        C  0.21609253  0.47473890  0.25255478    -0.53400
C191        C  0.23882006  0.47502405  0.26918657     0.09700
C192        C  0.25535397  0.49931440  0.26139933     0.20700
C193        C  0.21490623  0.02322502  0.25311690    -0.54100
C194        C  0.23771105  0.02394677  0.26938629     0.09800
C195        C  0.23512444  0.49885666  0.20723945    -0.53700
C196        C  0.25811579  0.49902052  0.22345930     0.10400
H197        H  0.20315082  0.45848785  0.25574276     0.14900
H198        H  0.27382528  0.49994939  0.27488822     0.00700
H199        H  0.20067060  0.03856700  0.25573295     0.15200
H200        H  0.23366061  0.49923511  0.18054194     0.15000
C201        C  0.03379799  0.24928686  0.72871663     0.86800
C202        C  0.03212413  0.27099141  0.75515693    -0.53400
C203        C  0.51059153  0.27018793  0.77413050     0.09700
C204        C  0.49233036  0.24757073  0.76528949     0.20700
C205        C  0.03032126  0.22361713  0.74780974    -0.54100
C206        C  0.50873816  0.22244825  0.76684497     0.09800
C207        C  0.50856554  0.25285006  0.70944274    -0.53700
C208        C  0.48679664  0.25142481  0.72829183     0.10400
H209        H  0.04537900  0.28725647  0.75703437     0.14900
H210        H  0.47495877  0.24714575  0.78102468     0.00700
H211        H  0.04399522  0.20766996  0.74639947     0.15200
H212        H  0.50791636  0.25648269  0.68311382     0.15000
C213        C  0.21332385  0.49771068  0.77505709     0.86800
C214        C  0.21773033  0.02244171  0.75649395    -0.53400
C215        C  0.23881359  0.02261335  0.73666880     0.09700
C216        C  0.25497190  0.49836125  0.73863180     0.20700
C217        C  0.21527481  0.47492193  0.75040145    -0.54100
C218        C  0.23696591  0.47494361  0.73137979     0.09800
C219        C  0.23870547  0.49621150  0.79480166    -0.53700
C220        C  0.26037840  0.49656478  0.77584024     0.10400
H221        H  0.20440003  0.03869573  0.75751026     0.14900
H222        H  0.27260685  0.49853650  0.72334009     0.00700
H223        H  0.20115175  0.45934370  0.74929477     0.15200
H224        H  0.24022718  0.49549261  0.82136100     0.15000
C225        C  0.11852946  0.48921988  0.11888310    -0.01700
C226        C  0.11719155  0.49998722  0.15077288     0.06900
C227        C  0.09334923  0.01061297  0.16243073    -0.07700
C228        C  0.07152187  0.01021179  0.14205652     0.04300
C229        C  0.07331400  0.49944709  0.10961507    -0.14900
C230        C  0.09686443  0.48916905  0.09867816    -0.08200
C231        C  0.14000616  0.50028331  0.17261234     0.05300
C232        C  0.15802440  0.02332137  0.17061720    -0.09300
C233        C  0.18067800  0.02271713  0.18927435     0.00300
C234        C  0.18601733  0.49944423  0.21035805     0.00100
C235        C  0.16767190  0.47910212  0.21258212    -0.12900
C236        C  0.14506935  0.47942399  0.19406040     0.00600
C237        C  0.19791237  0.04472265  0.18618908     0.39900
C238        C  0.12744630  0.45774971  0.19693169     0.36500
C239        C  0.14185553  0.47767009  0.10650661     0.36300
C240        C  0.04747159  0.01837424  0.15618058     0.37000
N241        N  0.21152079  0.06250508  0.18380634    -0.43800
N242        N  0.11329977  0.44040946  0.19915878    -0.44200
N243        N  0.02822011  0.02479843  0.16773903    -0.41600
N244        N  0.16042337  0.46821658  0.09651219    -0.43000
H245        H  0.09843631  0.48086852  0.07412605     0.13200
H246        H  0.09163330  0.01679780  0.18793118     0.09600
H247        H  0.15440112  0.03962496  0.15418377     0.10700
H248        H  0.17038331  0.46243475  0.22828164     0.16500
C249        C  0.32619960  0.01697623  0.19816863    -0.01700
C250        C  0.33115035  0.49899621  0.17303939     0.06900
C251        C  0.31190315  0.48149539  0.16343635    -0.07700
C252        C  0.28813713  0.48116202  0.17939963     0.04300
C253        C  0.28327307  0.49854669  0.20592093    -0.14900
C254        C  0.30284725  0.01643371  0.21547679    -0.08200
C255        C  0.35487635  0.50030414  0.15283211     0.05300
C256        C  0.37685360  0.48646787  0.16247045    -0.09300
C257        C  0.39857283  0.48542339  0.14190653     0.00300
C258        C  0.39838401  0.49847064  0.11113076     0.00100
C259        C  0.37417465  0.01056685  0.09780301    -0.12900
C260        C  0.35248648  0.01132657  0.11799049     0.00600
C261        C  0.42005094  0.46962717  0.15206711     0.39900
C262        C  0.32920326  0.02238664  0.10486003     0.36500
C263        C  0.34562253  0.03553376  0.20787827     0.36300
C264        C  0.26934061  0.46240933  0.16825765     0.37000
N265        N  0.43720363  0.45687448  0.16021838    -0.43800
N266        N  0.31055642  0.03114454  0.09418855    -0.44200
N267        N  0.25423852  0.44751536  0.15906282    -0.41600
N268        N  0.36128017  0.05035120  0.21560156    -0.43000
H269        H  0.29977971  0.02995125  0.23573082     0.13200
H270        H  0.31535284  0.46832598  0.14290345     0.09600
H271        H  0.37672945  0.47583631  0.18558898     0.10700
H272        H  0.37290915  0.01864496  0.07316514     0.16500
C273        C  0.97875937  0.36281136  0.12109387    -0.01700
C274        C  0.49366073  0.36340928  0.15005936     0.06900
C275        C  0.50645077  0.38671817  0.15848922    -0.07700
C276        C  0.50452654  0.40919993  0.13857289     0.04300
C277        C  0.48907065  0.40874452  0.10992439    -0.14900
C278        C  0.97618236  0.38537968  0.10182182    -0.08200
C279        C  0.49731136  0.33944306  0.17060777     0.05300
C280        C  0.02099905  0.32661307  0.16982142    -0.09300
C281        C  0.02528179  0.30394069  0.18850617     0.00300
C282        C  0.50588006  0.29407774  0.20955510     0.00100
C283        C  0.48178552  0.30628808  0.20914792    -0.12900
C284        C  0.47737874  0.32871389  0.18988937     0.00600
C285        C  0.04933089  0.29046884  0.18423198     0.39900
C286        C  0.45240357  0.34071953  0.19076162     0.36500
C287        C  0.96750467  0.33874327  0.10933543     0.36300
C288        C  0.52031396  0.43155054  0.14649480     0.37000
N289        N  0.06855749  0.27962799  0.18058137    -0.43800
N290        N  0.43236132  0.35031738  0.19130425    -0.44200
N291        N  0.53326495  0.44928675  0.15263203    -0.41600
N292        N  0.95883378  0.31936591  0.09963750    -0.43000
H293        H  0.96467245  0.38445949  0.07959966     0.13200
H294        H  0.51857161  0.38709362  0.18018631     0.09600
H295        H  0.03609321  0.33413330  0.15408515     0.10700
H296        H  0.46652560  0.29873190  0.22454834     0.16500
C297        C  0.49903745  0.11216987  0.15462263    -0.01700
C298        C  0.48441965  0.13492605  0.14872246     0.06900
C299        C  0.46671528  0.13475653  0.12272800    -0.07700
C300        C  0.46434018  0.11289412  0.10183055     0.04300
C301        C  0.47999274  0.09056114  0.10664896    -0.14900
C302        C  0.49665038  0.09028651  0.13382935    -0.08200
C303        C  0.48882279  0.15947307  0.16804897     0.05300
C304        C  0.01255919  0.17212085  0.16506303    -0.09300
C305        C  0.01872062  0.19382370  0.18466905     0.00300
C306        C  0.50087744  0.20351665  0.20790048     0.00100
C307        C  0.47653133  0.19184478  0.20956192    -0.12900
C308        C  0.47044028  0.16991320  0.18997883     0.00600
C309        C  0.04360290  0.20569313  0.18049332     0.39900
C310        C  0.44572631  0.15769242  0.19393182     0.36500
C311        C  0.51690199  0.11098874  0.18172001     0.36300
C312        C  0.94531515  0.11378026  0.07601942     0.37000
N313        N  0.06362251  0.21506616  0.17734692    -0.43800
N314        N  0.42591730  0.14786678  0.19711743    -0.44200
N315        N  0.92988849  0.11457979  0.05558658    -0.41600
N316        N  0.53121234  0.11012630  0.20345732    -0.43000
H317        H  0.50863942  0.07332975  0.13808252     0.13200
H318        H  0.45516329  0.15200364  0.11825200     0.09600
H319        H  0.02658533  0.16458531  0.14776435     0.10700
H320        H  0.46264434  0.19913924  0.22718588     0.16500
C321        C  0.15262860  0.35947333  0.96017370    -0.01700
C322        C  0.13856575  0.36203817  0.98968518     0.06900
C323        C  0.14322544  0.34483591  0.01588840    -0.07700
C324        C  0.16114243  0.32468448  0.01261482     0.04300
C325        C  0.17427191  0.32133373  0.98255532    -0.14900
C326        C  0.17029383  0.33907136  0.95673999    -0.08200
C327        C  0.11717410  0.38080482  0.99251898     0.05300
C328        C  0.09253855  0.37204664  0.98468280    -0.09300
C329        C  0.07148148  0.38888645  0.98639972     0.00300
C330        C  0.07490757  0.41521068  0.99671638     0.00100
C331        C  0.09983286  0.42375528  0.00472707    -0.12900
C332        C  0.12086500  0.40689393  0.00248065     0.00600
C333        C  0.04698605  0.37860151  0.97612990     0.39900
C334        C  0.14603420  0.41688092  0.01010955     0.36500
C335        C  0.14895951  0.37733458  0.93305868     0.36300
C336        C  0.16601652  0.30769005  0.04031780     0.37000
N337        N  0.02748827  0.37014201  0.96773320    -0.43800
N338        N  0.16615266  0.42509746  0.01609295    -0.44200
N339        N  0.17025808  0.29400955  0.06235134    -0.41600
N340        N  0.14614118  0.39173691  0.91137921    -0.43000
H341        H  0.18083367  0.33679094  0.93387319     0.13200
H342        H  0.13255286  0.34693347  0.03868302     0.09600
H343        H  0.08983989  0.35196066  0.97668476     0.10700
H344        H  0.10303541  0.44375274  0.01269908     0.16500
C345        C  0.34197572  0.32724042  0.01023321    -0.01700
C346        C  0.34635334  0.34580256  0.98508846     0.06900
C347        C  0.33130890  0.34506316  0.95640038    -0.07700
C348        C  0.31138292  0.32697816  0.95319220     0.04300
C349        C  0.30674655  0.30886463  0.97863990    -0.14900
C350        C  0.32235680  0.30884472  0.00670991    -0.08200
C351        C  0.36577037  0.36680442  0.98891906     0.05300
C352        C  0.39139335  0.36001506  0.99417933    -0.09300
C353        C  0.41013887  0.37919937  0.99912954     0.00300
C354        C  0.40349617  0.40614326  0.99765244     0.00100
C355        C  0.37761243  0.41272511  0.99239441    -0.12900
C356        C  0.35886075  0.39343143  0.98830866     0.00600
C357        C  0.43572675  0.37023644  0.00635206     0.39900
C358        C  0.33251448  0.40140404  0.98431076     0.36500
C359        C  0.35652601  0.32750721  0.04049716     0.36300
C360        C  0.29544854  0.32777349  0.92412401     0.37000
N361        N  0.45610296  0.36276365  0.01231585    -0.43800
N362        N  0.31135577  0.40754857  0.98105396    -0.44200
N363        N  0.28248001  0.32847853  0.90101836    -0.41600
N364        N  0.36830356  0.32783653  0.06465409    -0.43000
H365        H  0.31863057  0.29495257  0.02633280     0.13200
H366        H  0.33476180  0.35909068  0.93685638     0.09600
H367        H  0.39673031  0.33951284  0.99477186     0.10700
H368        H  0.37183291  0.43306727  0.99135151     0.16500
C369        C  0.38190872  0.12523568  0.98067840    -0.01700
C370        C  0.35600339  0.11841856  0.98452500     0.06900
C371        C  0.34935287  0.09248501  0.99121438    -0.07700
C372        C  0.36812294  0.07322560  0.99478832     0.04300
C373        C  0.39440365  0.07988316  0.99120661    -0.14900
C374        C  0.40077542  0.10608516  0.98407439    -0.08200
C375        C  0.33544107  0.13816184  0.98318877     0.05300
C376        C  0.31873349  0.13827985  0.95615555    -0.09300
C377        C  0.29863685  0.15630082  0.95452879     0.00300
C378        C  0.29525908  0.17460123  0.98022114     0.00100
C379        C  0.31169267  0.17407276  0.00757639    -0.12900
C380        C  0.33161666  0.15591875  0.00932454     0.00600
C381        C  0.28191204  0.15582457  0.92623015     0.39900
C382        C  0.34763834  0.15546564  0.03833538     0.36500
C383        C  0.38957245  0.15172364  0.97317442     0.36300
C384        C  0.35943389  0.04724239  0.00315347     0.37000
N385        N  0.26840242  0.15521614  0.90364040    -0.43800
N386        N  0.36049873  0.15490373  0.06154888    -0.44200
N387        N  0.35200923  0.02659776  0.00992443    -0.41600
N388        N  0.39578954  0.17293434  0.96722344    -0.43000
H389        H  0.42061892  0.11179075  0.98095084     0.13200
H390        H  0.32933191  0.08740699  0.99440300     0.09600
H391        H  0.32148582  0.12431903  0.93629826     0.10700
H392        H  0.30906167  0.18809604  0.02739167     0.16500
C393        C  0.13484473  0.15423054  0.95376588    -0.01700
C394        C  0.12246684  0.14981010  0.98415673     0.06900
C395        C  0.12959504  0.16436304  0.01197297    -0.07700
C396        C  0.14905856  0.18304391  0.00998583     0.04300
C397        C  0.16188344  0.18704157  0.97981978    -0.14900
C398        C  0.15449613  0.17278507  0.95182696    -0.08200
C399        C  0.10279203  0.12930476  0.98798713     0.05300
C400        C  0.10911638  0.10663506  0.00547967    -0.09300
C401        C  0.09118173  0.08665009  0.00987864     0.00300
C402        C  0.06620101  0.08939655  0.99673925     0.00100
C403        C  0.05985698  0.11245846  0.97976175    -0.12900
C404        C  0.07794270  0.13228932  0.97520487     0.00600
C405        C  0.09896173  0.06388472  0.02842763     0.39900
C406        C  0.07058736  0.15557501  0.95751506     0.36500
C407        C  0.12824321  0.13937974  0.92466225     0.36300
C408        C  0.15581146  0.19754179  0.03929710     0.37000
N409        N  0.10530200  0.04564684  0.04318266    -0.43800
N410        N  0.06472811  0.17423169  0.94328655    -0.44200
N411        N  0.16100330  0.20910632  0.06292441    -0.41600
N412        N  0.12290008  0.12747828  0.90135491    -0.43000
H413        H  0.16441008  0.17587814  0.92865565     0.13200
H414        H  0.12003822  0.16093044  0.03532710     0.09600
H415        H  0.12822952  0.10453243  0.01557701     0.10700
H416        H  0.04089488  0.11478660  0.96930895     0.16500
C417        C  0.35239735  0.50104237  0.88210749    -0.01700
C418        C  0.35552316  0.49384431  0.84881759     0.06900
C419        C  0.38092079  0.98001801  0.83675863    -0.07700
C420        C  0.40192141  0.98108122  0.85848428     0.04300
C421        C  0.39905054  0.99246273  0.89019486    -0.14900
C422        C  0.37351844  0.50182275  0.90320171    -0.08200
C423        C  0.33300783  0.49232330  0.82636087     0.05300
C424        C  0.33010480  0.00893936  0.80116573    -0.09300
C425        C  0.30672217  0.01075552  0.78424628     0.00300
C426        C  0.28642127  0.49466747  0.79072058     0.00100
C427        C  0.29161144  0.47360362  0.81187519    -0.12900
C428        C  0.31460391  0.47227756  0.82957237     0.00600
C429        C  0.30264776  0.03320154  0.76342511     0.39900
C430        C  0.31861108  0.45052328  0.85162263     0.36500
C431        C  0.32763928  0.50809094  0.89520744     0.36300
C432        C  0.42583754  0.96960418  0.84802064     0.37000
N433        N  0.30000414  0.05143371  0.74691723    -0.43800
N434        N  0.32176009  0.43307791  0.86930523    -0.44200
N435        N  0.44509532  0.96050277  0.83981656    -0.41600
N436        N  0.30786000  0.51379762  0.90583273    -0.43000
H437        H  0.37045472  0.50748130  0.92868636     0.13200
H438        H  0.38305997  0.97096500  0.81271488     0.09600
H439        H  0.34434322  0.02422829  0.79830453     0.10700
H440        H  0.27732899  0.45841373  0.81517764     0.16500
C441        C  0.09854186  0.48139233  0.85032611    -0.01700
C442        C  0.11643418  0.50210391  0.85023986     0.06900
C443        C  0.11095030  0.02480419  0.86991802    -0.07700
C444        C  0.08885869  0.02535995  0.88961642     0.04300
C445        C  0.07319611  0.00289903  0.89211518    -0.14900
C446        C  0.07697584  0.48246949  0.87104519    -0.08200
C447        C  0.14096699  0.50038840  0.83134727     0.05300
C448        C  0.14217208  0.00447742  0.79967907    -0.09300
C449        C  0.16490273  0.00308819  0.78132028     0.00300
C450        C  0.18779696  0.49782219  0.79476128     0.00100
C451        C  0.18720711  0.49384665  0.82930042    -0.12900
C452        C  0.16429653  0.49527605  0.84738273     0.00600
C453        C  0.16291629  0.00744917  0.74623669     0.39900
C454        C  0.16500609  0.49095081  0.88256581     0.36500
C455        C  0.10262617  0.45829054  0.83053258     0.36300
C456        C  0.08239303  0.04930628  0.90662202     0.37000
N457        N  0.16122566  0.01155043  0.71826966    -0.43800
N458        N  0.16527708  0.48750624  0.91076005    -0.44200
N459        N  0.07713985  0.06863233  0.91987898    -0.41600
N460        N  0.10598986  0.43977559  0.81466452    -0.43000
H461        H  0.06385129  0.46602437  0.87180763     0.13200
H462        H  0.12316501  0.04193739  0.86854006     0.09600
H463        H  0.12414426  0.00807173  0.78723306     0.10700
H464        H  0.20431420  0.48927501  0.84288450     0.16500
C465        C  0.49034062  0.17956975  0.83991679    -0.01700
C466        C  0.49207427  0.15402743  0.82645614     0.06900
C467        C  0.99712717  0.15143808  0.79260612    -0.07700
C468        C  0.00187825  0.17336939  0.77275626     0.04300
C469        C  0.50187427  0.19876758  0.78664350    -0.14900
C470        C  0.49536268  0.20156786  0.82006683    -0.08200
C471        C  0.48892531  0.12983526  0.84707733     0.05300
C472        C  0.46614488  0.12581938  0.86486053    -0.09300
C473        C  0.46298185  0.10379961  0.88519599     0.00300
C474        C  0.48295536  0.08541823  0.88849913     0.00100
C475        C  0.00514417  0.08863387  0.86951417    -0.12900
C476        C  0.00820072  0.11041810  0.84879527     0.00600
C477        C  0.43850513  0.09960281  0.90076985     0.39900
C478        C  0.03167859  0.11262898  0.83024000     0.36500
C479        C  0.48383188  0.18378032  0.87411200     0.36300
C480        C  0.00559350  0.16923398  0.73786909     0.37000
N481        N  0.41857920  0.09598893  0.91234150    -0.43800
N482        N  0.05040601  0.11415132  0.81511926    -0.44200
N483        N  0.00837676  0.16573362  0.70990210    -0.41600
N484        N  0.47828833  0.18722069  0.90141013    -0.43000
H485        H  0.49472406  0.22097438  0.83089130     0.13200
H486        H  0.99735066  0.13209622  0.78157412     0.09600
H487        H  0.45067373  0.13982317  0.86261595     0.10700
H488        H  0.02052811  0.07450230  0.87169338     0.16500
C489        C  0.01268101  0.38348299  0.85184819    -0.01700
C490        C  0.49319300  0.36421642  0.85121298     0.06900
C491        C  0.47084006  0.36845423  0.86968356    -0.07700
C492        C  0.46818340  0.39076484  0.88960553     0.04300
C493        C  0.48818389  0.40930346  0.89150755    -0.14900
C494        C  0.01000002  0.40582711  0.87180444    -0.08200
C495        C  0.49619710  0.33918397  0.83247854     0.05300
C496        C  0.01597509  0.32196435  0.84128302    -0.09300
C497        C  0.02013507  0.29873434  0.82361632     0.00300
C498        C  0.50415088  0.29215060  0.79677977     0.00100
C499        C  0.48372198  0.30879551  0.78877918    -0.12900
C500        C  0.47974209  0.33224103  0.80622068     0.00600
C501        C  0.04097453  0.28190767  0.83330769     0.39900
C502        C  0.45959551  0.34957743  0.79557766     0.36500
C503        C  0.03566004  0.38060282  0.83240307     0.36300
C504        C  0.44451742  0.39452470  0.90735494     0.37000
N505        N  0.05764272  0.26835373  0.84102816    -0.43800
N506        N  0.44353271  0.36358693  0.78705510    -0.44200
N507        N  0.42536371  0.39763261  0.92113095    -0.41600
N508        N  0.05408167  0.37823143  0.81683475    -0.43000
H509        H  0.02537677  0.42007580  0.87294468     0.13200
H510        H  0.45562264  0.35401602  0.86904093     0.09600
H511        H  0.02841590  0.32686765  0.86178904     0.10700
H512        H  0.47162599  0.30410181  0.76785121     0.16500
C513        C  0.36669730  0.25815740  0.66490639    -0.01700
C514        C  0.39205414  0.25315395  0.65483651     0.06900
C515        C  0.39648255  0.24359921  0.62299292    -0.07700
C516        C  0.37633744  0.23955804  0.60085294     0.04300
C517        C  0.35080830  0.24580848  0.61015950    -0.14900
C518        C  0.34638518  0.25455619  0.64263436    -0.08200
C519        C  0.41438406  0.25609900  0.67731257     0.05300
C520        C  0.41718967  0.23853906  0.70356676    -0.09300
C521        C  0.44006257  0.23731996  0.72164321     0.00300
C522        C  0.46070178  0.25414746  0.71358981     0.00100
C523        C  0.45705804  0.27292283  0.68874906    -0.12900
C524        C  0.43436761  0.27385581  0.67048759     0.00600
C525        C  0.44207525  0.21732830  0.74654577     0.39900
C526        C  0.43240417  0.29284267  0.64434532     0.36500
C527        C  0.36118092  0.26784055  0.69757820     0.36300
C528        C  0.38275184  0.22820230  0.56924458     0.37000
N529        N  0.44298420  0.20117589  0.76646495    -0.43800
N530        N  0.43121954  0.30821582  0.62351078    -0.44200
N531        N  0.38823523  0.21898797  0.54412741    -0.41600
N532        N  0.35675022  0.27564583  0.72376393    -0.43000
H533        H  0.32710333  0.25931305  0.65047494     0.13200
H534        H  0.41589688  0.23891027  0.61553675     0.09600
H535        H  0.40193554  0.22473517  0.70878615     0.10700
H536        H  0.47234891  0.28650147  0.68285895     0.16500
C537        C  0.10376739  0.26172451  0.70095775    -0.01700
C538        C  0.10479965  0.24976263  0.66973595     0.06900
C539        C  0.08296836  0.23674247  0.65802083    -0.07700
C540        C  0.06027172  0.23574567  0.67672739     0.04300
C541        C  0.05845077  0.24930372  0.70738317    -0.14900
C542        C  0.08103194  0.26129431  0.71938782    -0.08200
C543        C  0.12868815  0.25016915  0.64940166     0.05300
C544        C  0.15010090  0.23546751  0.65934003    -0.09300
C545        C  0.17275308  0.23510144  0.64043979     0.00300
C546        C  0.17426271  0.24978431  0.61097725     0.00100
C547        C  0.15305938  0.26511253  0.60188011    -0.12900
C548        C  0.13046214  0.26525998  0.62044262     0.00600
C549        C  0.19353588  0.21856319  0.65102451     0.39900
C550        C  0.10942747  0.28118386  0.60914373     0.36500
C551        C  0.12591245  0.27470048  0.71462855     0.36300
C552        C  0.03960063  0.21991544  0.66400292     0.37000
N553        N  0.21011228  0.20521921  0.65962198    -0.43800
N554        N  0.09276428  0.29401598  0.59964707    -0.44200
N555        N  0.52306855  0.20727916  0.65352788    -0.41600
N556        N  0.14370558  0.28504139  0.72555939    -0.43000
H557        H  0.08156856  0.26983209  0.74375902     0.13200
H558        H  0.08385988  0.22680742  0.63438801     0.09600
H559        H  0.14892048  0.22385775  0.68164676     0.10700
H560        H  0.15407149  0.27698031  0.57981896     0.16500
C561        C  0.26986947  0.13478655  0.65837808    -0.01700
C562        C  0.25480455  0.11249816  0.65096683     0.06900
C563        C  0.24015809  0.11256922  0.62199387    -0.07700
C564        C  0.24087338  0.13371667  0.60011686     0.04300
C565        C  0.25635414  0.15581134  0.60707114    -0.14900
C566        C  0.27041242  0.15616531  0.63659976    -0.08200
C567        C  0.25309737  0.08928671  0.67337801     0.05300
C568        C  0.24598025  0.09298116  0.70640698    -0.09300
C569        C  0.24282080  0.07170105  0.72772472     0.00300
C570        C  0.24527272  0.04575767  0.71571977     0.00100
C571        C  0.25314230  0.04200962  0.68295369    -0.12900
C572        C  0.25739798  0.06345834  0.66196557     0.00600
C573        C  0.23849536  0.07716788  0.76224199     0.39900
C574        C  0.26681943  0.05855980  0.62905673     0.36500
C575        C  0.28552203  0.13596107  0.68765709     0.36300
C576        C  0.22466005  0.13240094  0.57137512     0.37000
N577        N  0.23526052  0.08144172  0.78996551    -0.43800
N578        N  0.27454083  0.05484155  0.60271251    -0.44200
N579        N  0.21146319  0.13089157  0.54856760    -0.41600
N580        N  0.29798513  0.13699629  0.71120520    -0.43000
H581        H  0.28239126  0.17291318  0.64229659     0.13200
H582        H  0.22784766  0.09601348  0.61654094     0.09600
H583        H  0.24282998  0.11263014  0.71566268     0.10700
H584        H  0.25563722  0.02230112  0.67356569     0.16500
C585        C  0.27918718  0.37970554  0.62987799    -0.01700
C586        C  0.26016989  0.38119599  0.65458652     0.06900
C587        C  0.24403295  0.35948242  0.65946596    -0.07700
C588        C  0.24615456  0.33689717  0.63977942     0.04300
C589        C  0.26474693  0.33568938  0.61454794    -0.14900
C590        C  0.28131899  0.35714106  0.61024150    -0.08200
C591        C  0.25524532  0.40588205  0.67355672     0.05300
C592        C  0.23193925  0.41897853  0.66880874    -0.09300
C593        C  0.22607291  0.44194956  0.68628520     0.00300
C594        C  0.24366596  0.45238016  0.70934402     0.00100
C595        C  0.26728216  0.43961753  0.71354178    -0.12900
C596        C  0.27306196  0.41646819  0.69616631     0.00600
C597        C  0.20205636  0.45473059  0.67944401     0.39900
C598        C  0.29682583  0.40321129  0.70309735     0.36500
C599        C  0.29570238  0.40165669  0.62280401     0.36300
C600        C  0.22761951  0.31620101  0.64404599     0.37000
N601        N  0.18277659  0.46484216  0.67368617    -0.43800
N602        N  0.31582979  0.39248028  0.70863207    -0.44200
N603        N  0.21268953  0.29965066  0.64719173    -0.41600
N604        N  0.30896161  0.41922760  0.61709975    -0.43000
H605        H  0.29546134  0.35661539  0.59065065     0.13200
H606        H  0.22914595  0.36053695  0.67806120     0.09600
H607        H  0.21823382  0.41119916  0.65125003     0.10700
H608        H  0.28083900  0.44714113  0.73145381     0.16500
C609        C  0.35841828  0.11447987  0.51334843    -0.01700
C610        C  0.38276657  0.11840066  0.49913017     0.06900
C611        C  0.38856636  0.14261217  0.48480752    -0.07700
C612        C  0.37070451  0.16294906  0.48462123     0.04300
C613        C  0.34634087  0.15925421  0.49921857    -0.14900
C614        C  0.34055818  0.13487485  0.51346565    -0.08200
C615        C  0.40262504  0.09768181  0.49859229     0.05300
C616        C  0.41201409  0.08892762  0.46802332    -0.09300
C617        C  0.43212075  0.07088796  0.46642568     0.00300
C618        C  0.44261585  0.06085114  0.49575208     0.00100
C619        C  0.43320203  0.06944852  0.52626971    -0.12900
C620        C  0.41369417  0.08811034  0.52791937     0.00600
C621        C  0.44228933  0.06352521  0.43464309     0.39900
C622        C  0.40656547  0.09839718  0.55980538     0.36500
C623        C  0.35100875  0.08953580  0.52705378     0.36300
C624        C  0.37773180  0.18690794  0.46808624     0.37000
N625        N  0.45066006  0.05766970  0.40926252    -0.43800
N626        N  0.40097925  0.10680899  0.58532024    -0.44200
N627        N  0.38351146  0.20601520  0.45474033    -0.41600
N628        N  0.34494095  0.06959225  0.53805176    -0.43000
H629        H  0.32199286  0.13168308  0.52475073     0.13200
H630        H  0.40720831  0.14560236  0.47362389     0.09600
H631        H  0.40396678  0.09665841  0.44540286     0.10700
H632        H  0.44175288  0.06216704  0.54882474     0.16500
C633        C  0.10829101  0.09401938  0.52933308    -0.01700
C634        C  0.11380758  0.10853063  0.50067703     0.06900
C635        C  0.10040466  0.10333593  0.47145614    -0.07700
C636        C  0.08162638  0.08384227  0.47045632     0.04300
C637        C  0.07598866  0.06944001  0.49918906    -0.14900
C638        C  0.08932440  0.07473613  0.52844122    -0.08200
C639        C  0.13446745  0.12822910  0.50021211     0.05300
C640        C  0.15678320  0.12275707  0.48228331    -0.09300
C641        C  0.17714570  0.14050911  0.48180409     0.00300
C642        C  0.17514344  0.16427748  0.49946975     0.00100
C643        C  0.15259288  0.16981554  0.51697383    -0.12900
C644        C  0.13234204  0.15203589  0.51752668     0.00600
C645        C  0.19956933  0.13409202  0.46254937     0.39900
C646        C  0.10958499  0.15880408  0.53584281     0.36500
C647        C  0.12260001  0.09786965  0.55941518     0.36300
C648        C  0.06910889  0.07834781  0.43949426     0.37000
N649        N  0.21767198  0.12912355  0.44732826    -0.43800
N650        N  0.09151040  0.16447503  0.55071053    -0.44200
N651        N  0.05933575  0.07401481  0.41447107    -0.41600
N652        N  0.13420754  0.10100526  0.58339705    -0.43000
H653        H  0.08516740  0.06343924  0.55042207     0.13200
H654        H  0.10491309  0.11429867  0.44931523     0.09600
H655        H  0.15832661  0.10445654  0.46884644     0.10700
H656        H  0.15086957  0.18799407  0.53064552     0.16500
C657        C  0.16830662  0.38328106  0.49847232    -0.01700
C658        C  0.14228878  0.37751874  0.50366221     0.06900
C659        C  0.13458704  0.35161155  0.50842625    -0.07700
C660        C  0.15242902  0.33133014  0.50881212     0.04300
C661        C  0.17883248  0.33694006  0.50406325    -0.14900
C662        C  0.18630062  0.36308406  0.49870424    -0.08200
C663        C  0.12255920  0.39810915  0.50460916     0.05300
C664        C  0.10379385  0.39837218  0.47992030    -0.09300
C665        C  0.08383081  0.41648102  0.48099974     0.00300
C666        C  0.08254118  0.43460044  0.50719472     0.00100
C667        C  0.10138903  0.43446863  0.53175827    -0.12900
C668        C  0.12129594  0.41627657  0.53076517     0.00600
C669        C  0.06486133  0.41614090  0.45510904     0.39900
C670        C  0.13963487  0.41600105  0.55739025     0.36500
C671        C  0.17691636  0.40972827  0.49266568     0.36300
C672        C  0.14270696  0.30524715  0.51455752     0.37000
N673        N  0.04956372  0.41586848  0.43448542    -0.43800
N674        N  0.15433776  0.41581449  0.57872012    -0.44200
N675        N  0.13470341  0.28441917  0.51896408    -0.41600
N676        N  0.18378767  0.43096012  0.48821668    -0.43000
H677        H  0.20625772  0.36788625  0.49452915     0.13200
H678        H  0.11447233  0.34729117  0.51234997     0.09600
H679        H  0.10468488  0.38425734  0.45994584     0.10700
H680        H  0.10025183  0.44833868  0.55197768     0.16500
C681        C  0.39420350  0.34227921  0.52869900    -0.01700
C682        C  0.39056727  0.36851443  0.51948073     0.06900
C683        C  0.36677298  0.37661909  0.50749630    -0.07700
C684        C  0.34668807  0.35882628  0.50374598     0.04300
C685        C  0.35029583  0.33221985  0.51235120    -0.14900
C686        C  0.37415403  0.32436348  0.52509385    -0.08200
C687        C  0.41183314  0.38750609  0.51945887     0.05300
C688        C  0.43080048  0.38505820  0.49520485    -0.09300
C689        C  0.44974739  0.40416014  0.49173001     0.00300
C690        C  0.45015856  0.42579504  0.51336351     0.00100
C691        C  0.43148354  0.42788640  0.53813601    -0.12900
C692        C  0.41221853  0.40904971  0.54113626     0.00600
C693        C  0.46787876  0.40174037  0.46502581     0.39900
C694        C  0.39293115  0.41226497  0.56633198     0.36500
C695        C  0.41829190  0.33349689  0.54209768     0.36300
C696        C  0.32308138  0.36838873  0.48972260     0.37000
N697        N  0.48241360  0.39984056  0.44362003    -0.43800
N698        N  0.37740735  0.41482073  0.58644210    -0.44200
N699        N  0.30412832  0.37597835  0.47852974    -0.41600
N700        N  0.43767589  0.32665685  0.55281096    -0.43000
H701        H  0.37718758  0.30420238  0.53239991     0.13200
H702        H  0.36414711  0.39684291  0.50015402     0.09600
H703        H  0.43021943  0.36864679  0.47822108     0.10700
H704        H  0.43176389  0.44452643  0.55476860     0.16500
C705        C  0.12655950  0.24007297  0.38909791    -0.01700
C706        C  0.12781165  0.24770225  0.35582978     0.06900
C707        C  0.15148089  0.25562989  0.34275762    -0.07700
C708        C  0.17367060  0.25651918  0.36250507     0.04300
C709        C  0.17238574  0.24950645  0.39629085    -0.14900
C710        C  0.14851600  0.24112117  0.40886715    -0.08200
C711        C  0.10455541  0.24728365  0.33446128     0.05300
C712        C  0.08683705  0.26774992  0.33658818    -0.09300
C713        C  0.06422126  0.26757611  0.31778747     0.00300
C714        C  0.05873391  0.24649795  0.29581882     0.00100
C715        C  0.07685122  0.22593854  0.29424497    -0.12900
C716        C  0.09934645  0.22622691  0.31317302     0.00600
C717        C  0.04700235  0.28942171  0.32193108     0.39900
C718        C  0.11672606  0.20436851  0.31069932     0.36500
C719        C  0.10300845  0.23052540  0.40337688     0.36300
C720        C  0.19720747  0.26511530  0.34740003     0.37000
N721        N  0.03339535  0.30703666  0.32558657    -0.43800
N722        N  0.13060610  0.18681613  0.30867995    -0.44200
N723        N  0.21603244  0.27195424  0.33507345    -0.41600
N724        N  0.08423169  0.22270314  0.41487831    -0.43000
H725        H  0.14687116  0.23503841  0.43438408     0.13200
H726        H  0.15257775  0.26127383  0.31702846     0.09600
H727        H  0.09065083  0.28392260  0.35323956     0.10700
H728        H  0.07405245  0.20922383  0.27853235     0.16500
C729        C  0.42464403  0.22865616  0.31631022    -0.01700
C730        C  0.41549000  0.25289981  0.32823565     0.06900
C731        C  0.42960432  0.27570213  0.32176098    -0.07700
C732        C  0.45257548  0.27463115  0.30394759     0.04300
C733        C  0.46192314  0.25043637  0.29247102    -0.14900
C734        C  0.44774538  0.22759240  0.29856564    -0.08200
C735        C  0.39242109  0.25461587  0.34977092     0.05300
C736        C  0.39574170  0.26189086  0.38272746    -0.09300
C737        C  0.37511003  0.26233232  0.40470589     0.00300
C738        C  0.35022258  0.25467274  0.39402380     0.00100
C739        C  0.34674714  0.24879210  0.36035361    -0.12900
C740        C  0.36755903  0.24890202  0.33828409     0.00600
C741        C  0.38042448  0.27122231  0.43787144     0.39900
C742        C  0.36311273  0.24345899  0.30383552     0.36500
C743        C  0.41107519  0.20462582  0.32315073     0.36300
C744        C  0.46655881  0.29854086  0.29813502     0.37000
N745        N  0.38501233  0.27834169  0.46432576    -0.43800
N746        N  0.35993526  0.23924753  0.27609253    -0.44200
N747        N  0.47784683  0.31763216  0.29325531    -0.41600
N748        N  0.39987259  0.18558874  0.32871285    -0.43000
H749        H  0.45506376  0.20887589  0.29021176     0.13200
H750        H  0.42279853  0.29434693  0.33105334     0.09600
H751        H  0.41473965  0.26699029  0.39145064     0.10700
H752        H  0.32788724  0.24362436  0.35130470     0.16500
C753        C  0.25767977  0.38966028  0.39171069    -0.01700
C754        C  0.25878067  0.38713768  0.35712768     0.06900
C755        C  0.26332686  0.36228107  0.34349706    -0.00700
C756        C  0.26561421  0.33996860  0.36365425     0.04300
C757        C  0.26280953  0.34218691  0.39837672    -0.14900
C758        C  0.25932190  0.36745244  0.41177217    -0.08200
C759        C  0.25405078  0.41003429  0.33501402     0.05300
C760        C  0.27343946  0.41904679  0.31380786    -0.09300
C761        C  0.26933873  0.44054998  0.29274882     0.00300
C762        C  0.24547120  0.45358353  0.29285573     0.00100
C763        C  0.22624036  0.44451259  0.31429700    -0.12900
C764        C  0.23015927  0.42288242  0.33478205     0.00600
C765        C  0.28943082  0.44776102  0.27011452     0.39900
C766        C  0.20893686  0.41358652  0.35438868     0.36500
C767        C  0.25513388  0.41496802  0.40728531     0.36300
C768        C  0.27144050  0.31533673  0.34791852     0.37000
N769        N  0.30569145  0.45327889  0.25202924    -0.43800
N770        N  0.19190843  0.40612431  0.37003381    -0.44200
N771        N  0.27634517  0.29563287  0.33532489    -0.41600
N772        N  0.25315857  0.43524188  0.41976770    -0.43000
H773        H  0.25760131  0.37007158  0.43820903     0.13200
H774        H  0.26474554  0.36024640  0.31693416     0.09600
H775        H  0.29175543  0.40909680  0.31350902     0.10700
H776        H  0.20776394  0.45415585  0.31468676     0.16500
C777        C  0.24906560  0.09471402  0.29294987    -0.01700
C778        C  0.25242046  0.09332050  0.32746110     0.06900
C779        C  0.25260154  0.06848809  0.34253110    -0.07700
C780        C  0.24931384  0.04548208  0.32390331     0.04300
C781        C  0.24488964  0.04711229  0.28969339    -0.14900
C782        C  0.24500376  0.07182021  0.27458603    -0.08200
C783        C  0.25550273  0.11743363  0.34820435     0.05300
C784        C  0.23637476  0.13685162  0.34784145    -0.09300
C785        C  0.23811586  0.15912217  0.36816164     0.00300
C786        C  0.25916433  0.16212440  0.38963247     0.00100
C787        C  0.27839473  0.14300024  0.38965910    -0.12900
C788        C  0.27689709  0.12100788  0.36904263     0.00600
C789        C  0.21739473  0.17779828  0.36802095     0.39900
C790        C  0.29778923  0.10257435  0.36951801     0.36500
C791        C  0.25049284  0.11930581  0.27560284     0.36300
C792        C  0.24986945  0.02054650  0.34052807     0.37000
N793        N  0.20076354  0.19273114  0.36799377    -0.43800
N794        N  0.31462542  0.08789722  0.37002830    -0.44200
N795        N  0.24645305  0.49928719  0.35386048    -0.41600
N796        N  0.25181306  0.13895694  0.26157632    -0.43000
H797        H  0.24188436  0.07320518  0.24819985     0.13200
H798        H  0.25508527  0.06708429  0.36901384     0.09600
H799        H  0.21971427  0.13428420  0.33222909     0.10700
H800        H  0.29461654  0.14517689  0.40613338     0.16500
O801        O  0.26101492  0.70576320  0.40440970    -0.79800
O802        O  0.25948980  0.70280937  0.59471708    -0.81400
O803        O  0.30148888  0.67130418  0.50049917    -0.78400
O804        O  0.21804255  0.67534800  0.49731469    -0.76800
O805        O  0.18871706  0.70833502  0.49811790    -0.78600
O806        O  0.33301993  0.70214064  0.50222690    -0.79500
O807        O  0.25857473  0.67306447  0.55245370    -0.80800
O808        O  0.26066510  0.67442163  0.44489088    -0.81100
Eu809      Eu  0.26089187  0.69534858  0.49923251     2.39200
O810        O  0.23592934  0.72188840  0.53405909    -0.88600
O811        O  0.28786056  0.72112359  0.46581935    -0.92200
C812        C  0.26032196  0.68171459  0.41446474     1.02500
C813        C  0.25811828  0.67913243  0.58332331     1.02300
C814        C  0.32522415  0.67821198  0.50151318     1.02200
C815        C  0.19482999  0.68395162  0.49715460     1.00100
H816        H  0.29713566  0.70858771  0.54822431     0.29800
O817        O  0.28692384  0.72015894  0.53480728    -1.01000
H818        H  0.22582736  0.71293816  0.45182629     0.29900
O819        O  0.23688070  0.72329613  0.46548240    -1.03500
O820        O  0.26249562  0.79143258  0.59621413    -0.80800
O821        O  0.26408100  0.79422284  0.40675776    -0.80300
O822        O  0.33470786  0.74503057  0.55525229    -0.78700
O823        O  0.18942755  0.74965096  0.55314198    -0.82100
O824        O  0.19048999  0.75017321  0.44689265    -0.79900
O825        O  0.33630644  0.74623855  0.44887974    -0.78600
O826        O  0.30738484  0.81979207  0.50612192    -0.80100
O827        O  0.22388451  0.82369598  0.49967863    -0.82000
O828        O  0.33718489  0.78737687  0.50552260    -0.78800
O829        O  0.19242240  0.79283712  0.49907040    -0.81400
O830        O  0.30493424  0.74584446  0.59650488    -0.77200
O831        O  0.30747721  0.74886863  0.40668014    -0.77200
O832        O  0.22002125  0.74998132  0.40532982    -0.76900
O833        O  0.21852267  0.74780626  0.59519194    -0.80400
O834        O  0.26471258  0.82254044  0.55572109    -0.79800
O835        O  0.26619392  0.82327997  0.44947755    -0.78100
Eu836      Eu  0.26196097  0.74714769  0.56974826     2.39800
Eu837      Eu  0.26352002  0.74935817  0.43158514     2.39600
Eu838      Eu  0.31377356  0.74583565  0.50160029     2.38400
Eu839      Eu  0.21196089  0.74968935  0.50018114     2.39900
Eu840      Eu  0.26475826  0.80034075  0.50221804     2.39800
O841        O  0.23846960  0.77573113  0.46690606    -0.92500
O842        O  0.28895983  0.77263486  0.53601404    -0.91400
C843        C  0.26348294  0.81555232  0.58622565     1.02600
C844        C  0.26522909  0.81788245  0.41842732     1.01400
C845        C  0.32837400  0.74514834  0.58592987     1.00800
C846        C  0.19529285  0.74887386  0.58402681     1.02800
C847        C  0.19658658  0.74992260  0.41610831     1.01700
C848        C  0.33073110  0.74800430  0.41803057     1.00500
C849        C  0.33068983  0.81169781  0.50702641     1.00600
C850        C  0.20017479  0.81671399  0.49851177     1.03200
H851        H  0.30128037  0.78481427  0.45503406     0.30600
O852        O  0.28995277  0.77397523  0.46755596    -1.04700
H853        H  0.22693980  0.78613495  0.54871988     0.32600
O854        O  0.23757273  0.77494368  0.53552229    -1.07200
N855        N  0.47387667  0.49464519  0.50796755    -0.36300
N856        N  0.01013082  0.53759783  0.50884974    -0.56800
N857        N  0.05163070  0.50061715  0.51246492    -0.36300
N858        N  0.01532267  0.95825094  0.50996973    -0.56800
C859        C  0.45836974  0.51469826  0.49974981     0.27300
C860        C  0.46120991  0.97312343  0.49943331     0.27300
C861        C  0.06439300  0.52283713  0.50491516     0.27300
C862        C  0.06803800  0.97964897  0.50277088     0.27300
C863        C  0.48825000  0.55115874  0.51304775     0.35900
C864        C  0.02943325  0.55430083  0.51564866     0.35900
C865        C  0.49536068  0.94248077  0.51731256     0.35900
C866        C  0.03673303  0.94463110  0.51698686     0.35900
C867        C  0.43524535  0.50494732  0.48817548    -0.21600
C868        C  0.43738659  0.97824548  0.48583413    -0.21600
C869        C  0.08820873  0.51669377  0.49198747    -0.21600
C870        C  0.09201022  0.98822438  0.49270641    -0.21600
C871        C  0.49370459  0.57670162  0.52233095    -0.22600
C872        C  0.01986851  0.57868599  0.52396522    -0.22600
C873        C  0.50410867  0.91871550  0.52920016    -0.22600
C874        C  0.03038988  0.91998048  0.52865766    -0.22600
C875        C  0.46364685  0.54137571  0.50573465    -0.18000
C876        C  0.46959829  0.94824673  0.50998332    -0.18000
C877        C  0.06176583  0.95327450  0.50982426    -0.18000
C878        C  0.05546026  0.54846694  0.51073384    -0.18000
H879        H  0.41860036  0.51596398  0.48056462     0.14900
H880        H  0.42244495  0.96427937  0.48009586     0.14900
H881        H  0.10290372  0.53015242  0.48383321     0.14900
H882        H  0.10890328  0.97650539  0.48827581     0.14900
H883        H  0.48030026  0.59245844  0.52666085     0.13200
H884        H  0.03063954  0.59618427  0.52983182     0.13200
H885        H  0.49279209  0.90192220  0.53641039     0.13200
H886        H  0.04326005  0.90436574  0.53557991     0.13200
H887        H  0.49072006  0.49616178  0.52140158     0.26500
H888        H  0.03470486  0.49934134  0.52588787     0.26500
O889        O  0.48846681  0.95258275  0.90640748    -0.79800
O890        O  0.48616504  0.95664728  0.09625167    -0.81400
O891        O  0.03091029  0.92651093  0.00087981    -0.78400
O892        O  0.44726447  0.92216553  0.00190473    -0.76800
O893        O  0.41473929  0.95169568  0.00139608    -0.78600
O894        O  0.06003328  0.95962502  0.99940724    -0.79500
O895        O  0.48735575  0.92528032  0.05582498    -0.80800
O896        O  0.48766640  0.92243351  0.94820197    -0.81100
Eu897      Eu  0.48792219  0.94581840  0.00138622     2.39200
O898        O  0.46103444  0.97145890  0.03490472    -0.88600
O899        O  0.01280769  0.97242754  0.96673411    -0.92200
C900        C  0.48819034  0.92879597  0.91739198     1.02500
C901        C  0.48679919  0.93254782  0.08630079     1.02300
C902        C  0.05410009  0.93511790  0.99967416     1.02200
C903        C  0.42332235  0.92804892  0.00171294     1.00100
H904        H  0.02337362  0.96368201  0.04890721     0.29800
O905        O  0.01207424  0.97402686  0.03516585    -1.01000
H906        H  0.45090451  0.95819367  0.95333820     0.29900
O907        O  0.46104937  0.96992452  0.96652156    -1.03500
O908        O  0.48423743  0.54321413  0.09542671    -0.80800
O909        O  0.48475546  0.54195665  0.90622808    -0.80300
O910        O  0.05794313  0.00222712  0.05386595    -0.78700
O911        O  0.41273458  0.99642269  0.05394000    -0.82100
O912        O  0.41319936  0.99352898  0.94572123    -0.79900
O913        O  0.05852487  0.00300625  0.94704502    -0.78600
O914        O  0.02349552  0.57452354  0.00230998    -0.80100
O915        O  0.43897987  0.56948544  0.99915057    -0.82000
O916        O  0.05572151  0.54438922  0.00328360    -0.78800
O917        O  0.40983840  0.53631900  0.99966820    -0.81400
O918        O  0.02831428  0.00184450  0.09527386    -0.77200
O919        O  0.02867356  0.50011803  0.90656325    -0.77200
O920        O  0.44308363  0.49703884  0.90636827    -0.76900
O921        O  0.44232212  0.99906847  0.09539651    -0.80400
O922        O  0.48028461  0.57355794  0.05418915    -0.79800
O923        O  0.48127196  0.57309585  0.94675612    -0.78100
Eu924      Eu  0.48518416  0.00006015  0.06879933     2.39800
Eu925      Eu  0.48594961  0.99690071  0.93174606     2.39600
Eu926      Eu  0.03639690  0.00102635  0.00038159     2.38400
Eu927      Eu  0.43400191  0.99535606  0.99995483     2.39900
Eu928      Eu  0.48239607  0.55102880  0.00085369     2.39800
O929        O  0.45831518  0.52284100  0.96731273    -0.92500
O930        O  0.00963435  0.52614628  0.03492338    -0.91400
C931        C  0.48172629  0.56704475  0.08485262     1.02600
C932        C  0.48289355  0.56595055  0.91624074     1.01400
C933        C  0.05173975  0.00224790  0.08465551     1.00800
C934        C  0.41898221  0.99797126  0.08469948     1.02800
C935        C  0.41966238  0.49591140  0.91663356     1.01700
C936        C  0.05199234  0.50265660  0.91689933     1.00500
C937        C  0.04739021  0.56810536  0.00324014     1.00600
C938        C  0.41576613  0.56077405  0.99880759     1.03200
H939        H  0.02016413  0.53771486  0.95390583     0.30600
O940        O  0.00983653  0.52611466  0.96722780    -1.04700
H941        H  0.44693122  0.53394419  0.04859851     0.32600
O942        O  0.45823026  0.52340883  0.03529177    -1.07200
N943        N  0.19645685  0.75215129  0.97922394    -0.36300
N944        N  0.23179054  0.70826745  0.97760178    -0.56800
N945        N  0.27413746  0.74521060  0.97811772    -0.36300
N946        N  0.23884654  0.78908408  0.97541810    -0.56800
C947        C  0.17975544  0.73220961  0.97484532     0.27300
C948        C  0.18357602  0.77469271  0.97402343     0.27300
C949        C  0.28690872  0.72263979  0.97279332     0.27300
C950        C  0.29055797  0.76498521  0.97166113     0.27300
C951        C  0.20989627  0.69495458  0.98339362     0.35900
C952        C  0.25118056  0.69127947  0.98273763     0.35900
C953        C  0.21968458  0.80608542  0.98161761     0.35900
C954        C  0.26084097  0.80234366  0.98060506     0.35900
C955        C  0.15590572  0.74221411  0.96678684    -0.21600
C956        C  0.15831754  0.76903075  0.96626961    -0.21600
C957        C  0.31177209  0.72814853  0.96294267    -0.21600
C958        C  0.31406472  0.75490264  0.96221262    -0.21600
C959        C  0.21540244  0.66918364  0.99131460    -0.22600
C960        C  0.24157480  0.66687812  0.99096337    -0.22600
C961        C  0.22953092  0.83043094  0.98984714    -0.22600
C962        C  0.25564954  0.82804467  0.98926551    -0.22600
C963        C  0.18495003  0.70543573  0.98059826    -0.18000
C964        C  0.19339297  0.80018414  0.97912799    -0.18000
C965        C  0.28559002  0.79179432  0.97673222    -0.18000
C966        C  0.27742197  0.69724669  0.97900862    -0.18000
H967        H  0.13842988  0.73136089  0.96243957     0.14900
H968        H  0.14305289  0.78280486  0.96148417     0.14900
H969        H  0.32684909  0.71431946  0.95738392     0.14900
H970        H  0.33123165  0.76570744  0.95602533     0.14900
H971        H  0.20198034  0.65365420  0.99684127     0.13200
H972        H  0.25229714  0.64925696  0.99615029     0.13200
H973        H  0.21900744  0.84802859  0.99587672     0.13200
H974        H  0.26924307  0.84343411  0.99478126     0.13200
H975        H  0.21449658  0.75065829  0.98961175     0.26500
H976        H  0.25657215  0.74698003  0.98978919     0.26500
C977        C  0.03612522  0.74804998  0.27053820     0.86800
C978        C  0.03217549  0.72515780  0.24591511    -0.53400
C979        C  0.51007554  0.72643242  0.22795152     0.09700
C980        C  0.49351881  0.75049397  0.23627992     0.20700
C981        C  0.03367648  0.77262331  0.24899433    -0.54100
C982        C  0.51164651  0.77402641  0.23090234     0.09800
C983        C  0.51155271  0.74760665  0.29156293    -0.53700
C984        C  0.48936945  0.74907109  0.27388621     0.10400
H985        H  0.04476510  0.70856986  0.24306654     0.14900
H986        H  0.47546703  0.75156123  0.22189750     0.00700
H987        H  0.04815487  0.78787727  0.24855415     0.15200
H988        H  0.51168193  0.74643849  0.31830257     0.15000
C989        C  0.21142364  0.99971779  0.23007163     0.86800
C990        C  0.21588928  0.97576062  0.25266861    -0.53400
C991        C  0.23860725  0.97587065  0.26949861     0.09700
C992        C  0.25518573  0.00025488  0.26194481     0.20700
C993        C  0.21501277  0.52220455  0.25266437    -0.54100
C994        C  0.23790715  0.52297604  0.26876248     0.09800
C995        C  0.23513452  0.00002405  0.20766613    -0.53700
C996        C  0.25806195  0.00001759  0.22397545     0.10400
H997        H  0.20289935  0.95948322  0.25534741     0.14900
H998        H  0.27362888  0.00092215  0.27546975     0.00700
H999        H  0.20076466  0.53752264  0.25535332     0.15200
H1000       H  0.23378386  0.00033439  0.18094920     0.15000
C1001       C  0.03395037  0.74836714  0.72739399     0.86800
C1002       C  0.03175420  0.77042994  0.75332128    -0.53400
C1003       C  0.50999377  0.76964243  0.77195155     0.09700
C1004       C  0.49206589  0.74674680  0.76319406     0.20700
C1005       C  0.03050688  0.72296599  0.74704467    -0.54100
C1006       C  0.50868401  0.72184694  0.76566615     0.09800
C1007       C  0.50892695  0.75139720  0.70753237    -0.53700
C1008       C  0.48699111  0.75003859  0.72603274     0.10400
H1009       H  0.04497877  0.78669644  0.75541280     0.14900
H1010       H  0.47443636  0.74628080  0.77847099     0.00700
H1011       H  0.04439084  0.70718089  0.74635390     0.15200
H1012       H  0.50851817  0.75455904  0.68108677     0.15000
C1013       C  0.21403804  0.99757140  0.77698459     0.86800
C1014       C  0.21663447  0.52241563  0.75410606    -0.53400
C1015       C  0.23824653  0.52317357  0.73517252     0.09700
C1016       C  0.25481134  0.99723685  0.73908458     0.20700
C1017       C  0.21471105  0.97498768  0.75188320    -0.54100
C1018       C  0.23597290  0.97450668  0.73212412     0.09800
C1019       C  0.23972882  0.99482857  0.79582848    -0.53700
C1020       C  0.26098593  0.99471720  0.77604004     0.10400
H1021       H  0.20272807  0.53815684  0.75429794     0.14900
H1022       H  0.27206238  0.99702519  0.72308261     0.00700
H1023       H  0.20015717  0.95981458  0.75115899     0.15200
H1024       H  0.24172844  0.99345224  0.82229604     0.15000
C1025       C  0.11951754  0.99461018  0.11741773    -0.01700
C1026       C  0.11741319  0.00307665  0.15030841     0.06900
C1027       C  0.09371080  0.50962118  0.16237433    -0.07700
C1028       C  0.07177495  0.50928246  0.14226731     0.04300
C1029       C  0.07363546  0.00226404  0.10862761    -0.14900
C1030       C  0.09791557  0.99432617  0.09703163    -0.08200
C1031       C  0.14009710  0.00299268  0.17251358     0.05300
C1032       C  0.15755313  0.52092704  0.17051716    -0.09300
C1033       C  0.18023182  0.52080953  0.18911616     0.00300
C1034       C  0.18610243  0.00111931  0.21035001     0.00100
C1035       C  0.16746945  0.98108596  0.21232308    -0.12900
C1036       C  0.14486049  0.98191850  0.19380421     0.00600
C1037       C  0.19713950  0.54304554  0.18580790     0.39900
C1038       C  0.12701221  0.96044192  0.19647660     0.36500
C1039       C  0.14362088  0.98547949  0.10428065     0.36300
C1040       C  0.04827333  0.51956938  0.15572209     0.37000
N1041       N  0.21053267  0.56098490  0.18330263    -0.43800
N1042       N  0.11277876  0.94318044  0.19872208    -0.44200
N1043       N  0.02946551  0.52767620  0.16680012    -0.41600
N1044       N  0.16291774  0.97803702  0.09387768    -0.43000
H1045       H  0.10015630  0.98758992  0.07182543     0.13200
H1046       H  0.09255041  0.51742572  0.18721666     0.09600
H1047       H  0.15362081  0.53708498  0.15397592     0.10700
H1048       H  0.16998870  0.96429725  0.22789471     0.16500
C1049       C  0.32651985  0.51630507  0.19946629    -0.01700
C1050       C  0.33010248  0.00002774  0.17113818     0.06900
C1051       C  0.31077135  0.98227766  0.16254068    -0.07700
C1052       C  0.28757201  0.98155765  0.17981517     0.04300
C1053       C  0.28313092  0.99916947  0.20622068    -0.14900
C1054       C  0.30282362  0.51576495  0.21592507    -0.08200
C1055       C  0.35354129  0.00117746  0.15022916     0.05300
C1056       C  0.37667063  0.99053663  0.16168700    -0.09300
C1057       C  0.39844852  0.98944361  0.14121995     0.00300
C1058       C  0.39729408  0.99940590  0.10867301     0.00100
C1059       C  0.37656214  0.51290922  0.10227692    -0.12900
C1060       C  0.35496241  0.51376138  0.12259185     0.00600
C1061       C  0.42111618  0.97669524  0.15361271     0.39900
C1062       C  0.33272734  0.52798496  0.11147513     0.36500
C1063       C  0.34544885  0.53542168  0.20909899     0.36300
C1064       C  0.26903836  0.96193357  0.17044198     0.37000
N1065       N  0.43924036  0.96635515  0.16351287    -0.43800
N1066       N  0.31481182  0.53922217  0.10257490    -0.44200
N1067       N  0.25423705  0.94619378  0.16280663    -0.41600
N1068       N  0.36064756  0.55081617  0.21655113    -0.43000
H1069       H  0.29932392  0.52934097  0.23600061     0.13200
H1070       H  0.31381867  0.96898211  0.14203113     0.09600
H1071       H  0.37746690  0.98236018  0.18632347     0.10700
H1072       H  0.37624327  0.52338213  0.07906119     0.16500
C1073       C  0.97560614  0.86580871  0.12363286    -0.01700
C1074       C  0.49094326  0.86653663  0.15216986     0.06900
C1075       C  0.50394037  0.88978552  0.16017047    -0.07700
C1076       C  0.50215016  0.91199175  0.13988904     0.04300
C1077       C  0.48699929  0.91111828  0.11103585    -0.14900
C1078       C  0.97357000  0.88799414  0.10362213    -0.08200
C1079       C  0.49553285  0.84258405  0.17213677     0.05300
C1080       C  0.01914357  0.82993223  0.16914413    -0.09300
C1081       C  0.02440537  0.80708242  0.18692406     0.00300
C1082       C  0.50592279  0.79665317  0.20883284     0.00100
C1083       C  0.48191572  0.80889613  0.21091516    -0.12900
C1084       C  0.47666549  0.83176596  0.19298213     0.00600
C1085       C  0.04852917  0.79415697  0.18098547     0.39900
C1086       C  0.45206654  0.84416706  0.19702436     0.36500
C1087       C  0.96321513  0.84195199  0.11312722     0.36300
C1088       C  0.51759042  0.93458500  0.14783271     0.37000
N1089       N  0.06787807  0.78391617  0.17591708    -0.43800
N1090       N  0.43232802  0.85405951  0.20040062    -0.44200
N1091       N  0.53009713  0.95263017  0.15404927    -0.41600
N1092       N  0.95346768  0.82278923  0.10450478    -0.43000
H1093       H  0.96204717  0.88693960  0.08141069     0.13200
H1094       H  0.51617872  0.89027982  0.18175657     0.09600
H1095       H  0.03344342  0.83777576  0.15244873     0.10700
H1096       H  0.46743745  0.80100073  0.22725450     0.16500
C1097       C  0.50295385  0.61299516  0.15314159    -0.01700
C1098       C  0.48631247  0.63455138  0.14898085     0.06900
C1099       C  0.46635118  0.63246665  0.12596253    -0.07700
C1100       C  0.46365444  0.61000912  0.10616538     0.04300
C1101       C  0.48116160  0.58899142  0.10913663    -0.14900
C1102       C  0.50020088  0.59050330  0.13345675    -0.08200
C1103       C  0.49059694  0.65980415  0.16698615     0.05300
C1104       C  0.01340479  0.67364372  0.16134763    -0.09300
C1105       C  0.01957620  0.69604672  0.17974704     0.00300
C1106       C  0.50257983  0.70532183  0.20426851     0.00100
C1107       C  0.47895750  0.69258580  0.20831424    -0.12900
C1108       C  0.47294471  0.66990401  0.19015622     0.00600
C1109       C  0.04361123  0.70897643  0.17309232     0.39900
C1110       C  0.44923076  0.65654923  0.19716744     0.36500
C1111       C  0.52331864  0.61369306  0.17716153     0.36300
C1112       C  0.94254419  0.60888308  0.08323115     0.37000
N1113       N  0.06296894  0.71912964  0.16770243    -0.43800
N1114       N  0.43020159  0.64592475  0.20302297    -0.44200
N1115       N  0.92550053  0.60797043  0.06505853    -0.41600
N1116       N  0.53966983  0.61431369  0.19638052    -0.43000
H1117       H  0.51374916  0.57459922  0.13602782     0.13200
H1118       H  0.45327031  0.64872609  0.12279619     0.09600
H1119       H  0.02678816  0.66647562  0.14298766     0.10700
H1120       H  0.46569922  0.69957564  0.22689365     0.16500
C1121       C  0.14930675  0.85656501  0.95935729    -0.01700
C1122       C  0.13861797  0.86198683  0.99054241     0.06900
C1123       C  0.14673672  0.84782341  0.01818414    -0.07700
C1124       C  0.16496188  0.82796572  0.01491364     0.04300
C1125       C  0.17489812  0.82186857  0.98351050    -0.14900
C1126       C  0.16732257  0.83650746  0.95602217    -0.08200
C1127       C  0.11746690  0.88090474  0.99424593     0.05300
C1128       C  0.09240278  0.87134910  0.99405559    -0.09300
C1129       C  0.07147988  0.88835274  0.99544666     0.00300
C1130       C  0.07553282  0.91577793  0.99826751     0.00100
C1131       C  0.10098979  0.92510930  0.99880041    -0.12900
C1132       C  0.12180430  0.90799015  0.99628183     0.00600
C1133       C  0.04635603  0.87678907  0.99242074     0.39900
C1134       C  0.14739695  0.91862202  0.99478846     0.36500
C1135       C  0.14161423  0.87101480  0.93046811     0.36300
C1136       C  0.17332801  0.81408911  0.04395972     0.37000
N1137       N  0.02633692  0.86732651  0.98964171    -0.43800
N1138       N  0.16790097  0.92710970  0.99317920    -0.44200
N1139       N  0.18025503  0.80300679  0.06715457    -0.41600
N1140       N  0.13543049  0.88273250  0.90742513    -0.43000
H1141       H  0.17526789  0.83200829  0.93196576     0.13200
H1142       H  0.13858945  0.85210241  0.04219640     0.09600
H1143       H  0.08919622  0.85043965  0.99180752     0.10700
H1144       H  0.10480412  0.94591523  0.00055561     0.16500
C1145       C  0.34238057  0.82708025  0.01304839    -0.01700
C1146       C  0.34784784  0.84565724  0.98835232     0.06900
C1147       C  0.33392834  0.84526429  0.95875062    -0.07700
C1148       C  0.31389236  0.82752831  0.95417516     0.04300
C1149       C  0.30776700  0.80972036  0.97942315    -0.14900
C1150       C  0.32237163  0.80929744  0.00840915    -0.08200
C1151       C  0.36697007  0.86662386  0.99349734     0.05300
C1152       C  0.39272284  0.86005167  0.99796412    -0.09300
C1153       C  0.41135169  0.87947397  0.00196855     0.00300
C1154       C  0.40428004  0.90631439  0.00072713     0.00100
C1155       C  0.37819409  0.91261366  0.99701622    -0.12900
C1156       C  0.35964494  0.89311240  0.99369465     0.00600
C1157       C  0.43741162  0.87095453  0.00702374     0.39900
C1158       C  0.33307484  0.90068076  0.99118480     0.36500
C1159       C  0.35636380  0.82652546  0.04374373     0.36300
C1160       C  0.29957912  0.82820915  0.92375326     0.37000
N1161       N  0.45829469  0.86415106  0.01106604    -0.43800
N1162       N  0.31173042  0.90649958  0.98927581    -0.44200
N1163       N  0.28804987  0.82879870  0.89941077    -0.41600
N1164       N  0.36767677  0.82601246  0.06826064    -0.43000
H1165       H  0.31768438  0.79543558  0.02772271     0.13200
H1166       H  0.33837246  0.85929179  0.93953174     0.09600
H1167       H  0.39829967  0.83961295  0.99806651     0.10700
H1168       H  0.37210442  0.93287431  0.99641484     0.16500
C1169       C  0.38232274  0.62592920  0.98701118    -0.01700
C1170       C  0.35639235  0.61911727  0.99051085     0.06900
C1171       C  0.34969459  0.59322939  0.99740246    -0.07700
C1172       C  0.36844701  0.57392306  0.00094712     0.04300
C1173       C  0.39470976  0.58041482  0.99670341    -0.14900
C1174       C  0.40114190  0.60665646  0.98983980    -0.08200
C1175       C  0.33586741  0.63883367  0.98805346     0.05300
C1176       C  0.32121684  0.64008708  0.95914862    -0.09300
C1177       C  0.30151004  0.65843714  0.95609512     0.00300
C1178       C  0.29648879  0.67591773  0.98220858     0.00100
C1179       C  0.31092271  0.67436947  0.01130939    -0.12900
C1180       C  0.33039117  0.65580752  0.01450681     0.00600
C1181       C  0.28686580  0.65921281  0.92595372     0.39900
C1182       C  0.34420081  0.65404012  0.04526050     0.36500
C1183       C  0.39005373  0.65258174  0.98062802     0.36300
C1184       C  0.35980064  0.54805132  0.00990119     0.37000
N1185       N  0.27502459  0.65972920  0.90185930    -0.43800
N1186       N  0.35525686  0.65231001  0.06987907    -0.44200
N1187       N  0.35244529  0.52749752  0.01721286    -0.41600
N1188       N  0.39629950  0.67395179  0.97571651    -0.43000
H1189       H  0.42098466  0.61231001  0.98657373     0.13200
H1190       H  0.32966396  0.58820720  0.00061411     0.09600
H1191       H  0.32527902  0.62677516  0.93896338     0.10700
H1192       H  0.30699230  0.68777553  0.03143997     0.16500
C1193       C  0.13365917  0.65577940  0.95963904    -0.01700
C1194       C  0.12350431  0.64993034  0.99107162     0.06900
C1195       C  0.13314153  0.66297367  0.01888650    -0.07700
C1196       C  0.15262377  0.68163176  0.01577030     0.04300
C1197       C  0.16295564  0.68722078  0.98442999    -0.14900
C1198       C  0.15325545  0.67434020  0.95657196    -0.08200
C1199       C  0.10340053  0.62971370  0.99562552     0.05300
C1200       C  0.10950643  0.60671495  0.01268881    -0.09300
C1201       C  0.09145193  0.58664947  0.01642315     0.00300
C1202       C  0.06662206  0.58950705  0.00284793     0.00100
C1203       C  0.06033454  0.61305955  0.98694524    -0.12900
C1204       C  0.07841535  0.63304700  0.98328757     0.00600
C1205       C  0.09889831  0.56366638  0.03477047     0.39900
C1206       C  0.07084241  0.65686560  0.96692668     0.36500
C1207       C  0.12488287  0.64238175  0.93037480     0.36300
C1208       C  0.16196947  0.69458950  0.04504628     0.37000
N1209       N  0.10492558  0.54529014  0.04947658    -0.43800
N1210       N  0.06475048  0.67593256  0.95376414    -0.44200
N1211       N  0.16939499  0.70498601  0.06854387    -0.41600
N1212       N  0.11782366  0.63170851  0.90688457    -0.43000
H1213       H  0.16132400  0.67852107  0.93250337     0.13200
H1214       H  0.12543659  0.65850287  0.04307352     0.09600
H1215       H  0.12859169  0.60431576  0.02275236     0.10700
H1216       H  0.04139597  0.61567445  0.97653365     0.16500
C1217       C  0.35435518  0.00205288  0.87720922    -0.01700
C1218       C  0.35704766  0.99026395  0.84599139     0.06900
C1219       C  0.38017978  0.48813232  0.83708308    -0.07700
C1220       C  0.40152668  0.48888673  0.85827539     0.04300
C1221       C  0.39830920  0.49559665  0.89202508    -0.14900
C1222       C  0.37509138  0.00291286  0.89894484    -0.08200
C1223       C  0.33470578  0.98848632  0.82336372     0.05300
C1224       C  0.32843476  0.51277856  0.80411579    -0.09300
C1225       C  0.30534820  0.51417131  0.78640446     0.00300
C1226       C  0.28734262  0.99191842  0.78972722     0.00100
C1227       C  0.29257963  0.97071231  0.81068055    -0.12900
C1228       C  0.31605342  0.96879193  0.82726214     0.00600
C1229       C  0.30097190  0.53686837  0.76611423     0.39900
C1230       C  0.32035009  0.94689728  0.84899588     0.36500
C1231       C  0.33042958  0.01366960  0.88736862     0.36300
C1232       C  0.42620757  0.48201519  0.84478280     0.37000
N1233       N  0.29802457  0.55538692  0.75020506    -0.43800
N1234       N  0.32389165  0.92929072  0.86629843    -0.44200
N1235       N  0.44601976  0.47654769  0.83402488    -0.41600
N1236       N  0.31129257  0.02309550  0.89541537    -0.43000
H1237       H  0.37251824  0.01205966  0.92287604     0.13200
H1238       H  0.38268211  0.48271589  0.81141655     0.09600
H1239       H  0.34241497  0.52837294  0.80181299     0.10700
H1240       H  0.27802285  0.95590971  0.81468658     0.16500
C1241       C  0.10151643  0.98006962  0.85385129    -0.01700
C1242       C  0.11770180  0.00213987  0.85240861     0.06900
C1243       C  0.11173819  0.52410414  0.87014695    -0.07700
C1244       C  0.09019979  0.52519402  0.89089233     0.04300
C1245       C  0.07290906  0.50391811  0.89208745    -0.14900
C1246       C  0.07942141  0.98058989  0.87357070    -0.08200
C1247       C  0.14230988  0.00139403  0.83390305     0.05300
C1248       C  0.14099795  0.50353987  0.79706030    -0.09300
C1249       C  0.16386958  0.50226971  0.77879007     0.00300
C1250       C  0.18884383  0.99843196  0.79714905     0.00100
C1251       C  0.18852845  0.99511677  0.83180338    -0.12900
C1252       C  0.16568339  0.99669527  0.84999854     0.00600
C1253       C  0.16208436  0.50659882  0.74368125     0.39900
C1254       C  0.16647051  0.99299179  0.88529685     0.36500
C1255       C  0.10790074  0.95637704  0.83629247     0.36300
C1256       C  0.08598608  0.54854739  0.91024784     0.37000
N1257       N  0.16064858  0.51065518  0.71567704    -0.43800
N1258       N  0.16678402  0.99005684  0.91358492    -0.44200
N1259       N  0.08259238  0.56743275  0.92540746    -0.41600
N1260       N  0.11327053  0.93749892  0.82211811    -0.43000
H1261       H  0.06757040  0.96322358  0.87550936     0.13200
H1262       H  0.12520495  0.54026492  0.86989169     0.09600
H1263       H  0.12304448  0.50730108  0.78452723     0.10700
H1264       H  0.20578088  0.99105614  0.84535021     0.16500
C1265       C  0.48915294  0.68002013  0.83914241    -0.01700
C1266       C  0.49177513  0.65430736  0.82657382     0.06900
C1267       C  0.99788854  0.65112321  0.79309662    -0.07700
C1268       C  0.00270448  0.67275648  0.77275781     0.04300
C1269       C  0.50178023  0.69841709  0.78586615    -0.14900
C1270       C  0.49425369  0.70172731  0.81885899    -0.08200
C1271       C  0.48899765  0.63056214  0.84800897     0.05300
C1272       C  0.46579712  0.62576555  0.86453987    -0.09300
C1273       C  0.46306916  0.60429107  0.88591675     0.00300
C1274       C  0.48379696  0.58708475  0.89114417     0.00100
C1275       C  0.00661232  0.59125848  0.87370203    -0.12900
C1276       C  0.00935021  0.61266759  0.85228668     0.00600
C1277       C  0.43854945  0.59979361  0.90129681     0.39900
C1278       C  0.03356884  0.61628640  0.83573689     0.36500
C1279       C  0.48186296  0.68465600  0.87297861     0.36300
C1280       C  0.00729543  0.66807011  0.73814887     0.37000
N1281       N  0.41871085  0.59612417  0.91311590    -0.43800
N1282       N  0.05287817  0.61918487  0.82223219    -0.44200
N1283       N  0.01075723  0.66421125  0.71038358    -0.41600
N1284       N  0.47577237  0.68835776  0.90002560    -0.43000
H1285       H  0.49294890  0.72130847  0.82905949     0.13200
H1286       H  0.99896664  0.63155698  0.78280325     0.09600
H1287       H  0.44976045  0.63886215  0.86073693     0.10700
H1288       H  0.02264251  0.57814218  0.87754954     0.16500
C1289       C  0.01200959  0.88127602  0.85231446    -0.01700
C1290       C  0.49257606  0.86199872  0.85226216     0.06900
C1291       C  0.47082002  0.86593308  0.87195957    -0.07700
C1292       C  0.46865529  0.88809874  0.89228302     0.04300
C1293       C  0.48849170  0.90690693  0.89321919    -0.14900
C1294       C  0.00977738  0.90354325  0.87253600    -0.08200
C1295       C  0.49524553  0.83716897  0.83297754     0.05300
C1296       C  0.01543610  0.82007871  0.84063466    -0.09300
C1297       C  0.01977419  0.79740775  0.82196027     0.00300
C1298       C  0.50353794  0.79117701  0.79527114     0.00100
C1299       C  0.48260667  0.80753685  0.78849475    -0.12900
C1300       C  0.47844085  0.83048049  0.80696891     0.00600
C1301       C  0.04109805  0.78081985  0.83048753     0.39900
C1302       C  0.45771449  0.84759660  0.79767712     0.36500
C1303       C  0.03448222  0.87845303  0.83188636     0.36300
C1304       C  0.44556456  0.89145942  0.91133597     0.37000
N1305       N  0.05816837  0.76746125  0.83722677    -0.43800
N1306       N  0.44117277  0.86142693  0.79027331    -0.44200
N1307       N  0.42683633  0.89419481  0.92615680    -0.41600
N1308       N  0.05244030  0.87590300  0.81548495    -0.43000
H1309       H  0.02507296  0.91790304  0.87296176     0.13200
H1310       H  0.45569200  0.85138806  0.87192127     0.09600
H1311       H  0.02815239  0.82476374  0.86093958     0.10700
H1312       H  0.47022959  0.80304134  0.76777283     0.16500
C1313       C  0.36675919  0.75970833  0.66369721    -0.01700
C1314       C  0.39154988  0.75184319  0.65434326     0.06900
C1315       C  0.39524579  0.74013404  0.62356782    -0.07700
C1316       C  0.37491830  0.73672205  0.60160588     0.04300
C1317       C  0.34990754  0.74536311  0.61021833    -0.14900
C1318       C  0.34615951  0.75633431  0.64176272    -0.08200
C1319       C  0.41410969  0.75458696  0.67630304     0.05300
C1320       C  0.41766067  0.73617882  0.70140205    -0.09300
C1321       C  0.44088221  0.73470702  0.71860832     0.00300
C1322       C  0.46099186  0.75231957  0.71110701     0.00100
C1323       C  0.45677567  0.77165979  0.68709851    -0.12900
C1324       C  0.43374331  0.77272596  0.66949335     0.00600
C1325       C  0.44394397  0.71346819  0.74161736     0.39900
C1326       C  0.43105561  0.79195347  0.64368909     0.36500
C1327       C  0.36233500  0.77226500  0.69506780     0.36300
C1328       C  0.38069312  0.72402606  0.57062968     0.37000
N1329       N  0.44564224  0.69613203  0.75978379    -0.43800
N1330       N  0.42905809  0.80732578  0.62293466    -0.44200
N1331       N  0.38576880  0.71391997  0.54592888    -0.41600
N1332       N  0.35894720  0.78248954  0.72017077    -0.43000
H1333       H  0.32732133  0.76317350  0.64890695     0.13200
H1334       H  0.41427298  0.73360741  0.61666125     0.09600
H1335       H  0.40273963  0.72190860  0.70622821     0.10700
H1336       H  0.47183594  0.78554796  0.68137598     0.16500
C1337       C  0.10390762  0.76143117  0.69982803    -0.01700
C1338       C  0.10517270  0.74893879  0.66893283     0.06900
C1339       C  0.08374932  0.73491026  0.65786482    -0.07700
C1340       C  0.06109519  0.73376110  0.67658372     0.04300
C1341       C  0.05882841  0.74818483  0.70653167    -0.14900
C1342       C  0.08113289  0.76090980  0.71821690    -0.08200
C1343       C  0.12873637  0.74995346  0.64800383     0.05300
C1344       C  0.15094409  0.73661248  0.65798035    -0.09300
C1345       C  0.17310169  0.73637351  0.63817282     0.00300
C1346       C  0.17330831  0.74974184  0.60763000     0.00100
C1347       C  0.15116929  0.76353039  0.59820231    -0.12900
C1348       C  0.12915308  0.76377576  0.61795078     0.00600
C1349       C  0.19474691  0.72112441  0.64899722     0.39900
C1350       C  0.10735783  0.77875991  0.60698966     0.36500
C1351       C  0.12578215  0.77508652  0.71316930     0.36300
C1352       C  0.04089350  0.71700929  0.66451372     0.37000
N1353       N  0.21204809  0.70880656  0.65766056    -0.43800
N1354       N  0.09005646  0.79092085  0.59799300    -0.44200
N1355       N  0.52486169  0.70357217  0.65449530    -0.41600
N1356       N  0.14334652  0.78594566  0.72392060    -0.43000
H1357       H  0.08141734  0.77001792  0.74226128     0.13200
H1358       H  0.08489879  0.72442272  0.63463058     0.09600
H1359       H  0.15077278  0.72590071  0.68103954     0.10700
H1360       H  0.15099995  0.77423639  0.57512667     0.16500
C1361       C  0.26843943  0.63680005  0.65926440    -0.01700
C1362       C  0.25516391  0.61358797  0.65072140     0.06900
C1363       C  0.24182854  0.61277695  0.62076468    -0.07700
C1364       C  0.24217866  0.63393256  0.59897754     0.04300
C1365       C  0.25598208  0.65696738  0.60698034    -0.14900
C1366       C  0.26866155  0.65820359  0.63751094    -0.08200
C1367       C  0.25357036  0.59036160  0.67306185     0.05300
C1368       C  0.24459570  0.59378466  0.70534712    -0.09300
C1369       C  0.24088146  0.57241603  0.72632400     0.00300
C1370       C  0.24486355  0.54655576  0.71466302     0.00100
C1371       C  0.25465509  0.54311020  0.68268725    -0.12900
C1372       C  0.25925934  0.56470248  0.66204509     0.00600
C1373       C  0.23399043  0.57782008  0.76015188     0.39900
C1374       C  0.27009889  0.56012166  0.62977416     0.36500
C1375       C  0.28247723  0.63896264  0.68979902     0.36300
C1376       C  0.22732190  0.63153970  0.56912207     0.37000
N1377       N  0.22848396  0.58202766  0.78729018    -0.43800
N1378       N  0.27881401  0.55668858  0.60388332    -0.44200
N1379       N  0.21531447  0.62928716  0.54533415    -0.41600
N1380       N  0.29357134  0.64072944  0.71439635    -0.43000
H1381       H  0.27931271  0.67567462  0.64406817     0.13200
H1382       H  0.23074787  0.59551397  0.61447804     0.09600
H1383       H  0.24017504  0.61329117  0.71420603     0.10700
H1384       H  0.25826548  0.52351204  0.67354938     0.16500
C1385       C  0.27438184  0.88234352  0.62535541    -0.01700
C1386       C  0.25757832  0.88188046  0.65258341     0.06900
C1387       C  0.24360651  0.85891817  0.65892502    -0.07700
C1388       C  0.24584187  0.83680207  0.63839266     0.04300
C1389       C  0.26257723  0.83724965  0.61097307    -0.14900
C1390       C  0.27682514  0.86019946  0.60500649    -0.08200
C1391       C  0.25265731  0.90583698  0.67287591     0.05300
C1392       C  0.22930771  0.91901678  0.66906655    -0.09300
C1393       C  0.22376594  0.94170063  0.68731556     0.00300
C1394       C  0.24185126  0.95181718  0.70996289     0.00100
C1395       C  0.26540957  0.93881242  0.71339684    -0.12900
C1396       C  0.27080652  0.91590991  0.69537393     0.00600
C1397       C  0.19953234  0.95444504  0.68178543     0.39900
C1398       C  0.29463173  0.90247755  0.70133142     0.36500
C1399       C  0.28818549  0.90586084  0.61677358     0.36300
C1400       C  0.22904843  0.81484978  0.64425963     0.37000
N1401       N  0.18001884  0.96446381  0.67719385    -0.43800
N1402       N  0.31367232  0.89163881  0.70629363    -0.44200
N1403       N  0.21540437  0.79734484  0.64863294    -0.41600
N1404       N  0.29908267  0.92481564  0.60993495    -0.43000
H1405       H  0.28945448  0.86109759  0.58379644     0.13200
H1406       H  0.23024845  0.85859102  0.67939558     0.09600
H1407       H  0.21534856  0.91155453  0.65162521     0.10700
H1408       H  0.27929697  0.94602534  0.73109047     0.16500
C1409       C  0.35688552  0.61254208  0.51673668    -0.01700
C1410       C  0.38184696  0.61696336  0.50469737     0.06900
C1411       C  0.38799514  0.64129700  0.49103690    -0.07700
C1412       C  0.36990397  0.66132864  0.48948808     0.04300
C1413       C  0.34493017  0.65728345  0.50211113    -0.14900
C1414       C  0.33872946  0.63268368  0.51553101    -0.08200
C1415       C  0.40193981  0.59654292  0.50536168     0.05300
C1416       C  0.41289081  0.58841817  0.47538114    -0.09300
C1417       C  0.43297390  0.57037267  0.47495073     0.00300
C1418       C  0.44211272  0.56006459  0.50486174     0.00100
C1419       C  0.43117841  0.56799209  0.53475425    -0.12900
C1420       C  0.41143101  0.58635711  0.53529367     0.00600
C1421       C  0.44412653  0.56278141  0.44377433     0.39900
C1422       C  0.40203953  0.59517203  0.56688610     0.36500
C1423       C  0.34934371  0.58736721  0.52967548     0.36300
C1424       C  0.37744209  0.68543746  0.47371335     0.37000
N1425       N  0.45317654  0.55650559  0.41894142    -0.43800
N1426       N  0.39456041  0.60207917  0.59230836    -0.44200
N1427       N  0.38353052  0.70476280  0.46112851    -0.41600
N1428       N  0.34346630  0.56717923  0.54013227    -0.43000
H1429       H  0.31968823  0.62916804  0.52522257     0.13200
H1430       H  0.40710819  0.64462652  0.48142836     0.09600
H1431       H  0.40587812  0.59641453  0.45233815     0.10700
H1432       H  0.43854051  0.56020516  0.55773680     0.16500
C1433       C  0.10906830  0.59462671  0.53400633    -0.01700
C1434       C  0.11194422  0.60929367  0.50482069     0.06900
C1435       C  0.09534356  0.60493702  0.47826270    -0.07700
C1436       C  0.07630998  0.58573870  0.48018370     0.04300
C1437       C  0.07406272  0.57035262  0.50887058    -0.14900
C1438       C  0.09032335  0.57509264  0.53571679    -0.08200
C1439       C  0.13253906  0.62891094  0.50132814     0.05300
C1440       C  0.15544657  0.62164445  0.48584839    -0.09300
C1441       C  0.17581166  0.63937597  0.48317052     0.00300
C1442       C  0.17346836  0.66477869  0.49682988     0.00100
C1443       C  0.15001783  0.67215023  0.51119951    -0.12900
C1444       C  0.12963493  0.65452982  0.51337742     0.00600
C1445       C  0.19845135  0.63119423  0.46548633     0.39900
C1446       C  0.10590403  0.66315113  0.52802748     0.36500
C1447       C  0.12523347  0.59923645  0.56230036     0.36300
C1448       C  0.05957335  0.58179998  0.45230394     0.37000
N1449       N  0.21655192  0.62467793  0.45121730    -0.43800
N1450       N  0.08686897  0.67016849  0.53962597    -0.44200
N1451       N  0.04605454  0.57868551  0.43004587    -0.41600
N1452       N  0.13809737  0.60306429  0.58502912    -0.43000
H1453       H  0.08843548  0.56339817  0.55787750     0.13200
H1454       H  0.09740462  0.61644305  0.45596942     0.09600
H1455       H  0.15739873  0.60203173  0.47590648     0.10700
H1456       H  0.14766869  0.69163575  0.52137602     0.16500
C1457       C  0.16830730  0.88257839  0.50930471    -0.01700
C1458       C  0.14292680  0.87708082  0.49984239     0.06900
C1459       C  0.13672836  0.85228717  0.48758282    -0.07700
C1460       C  0.15510009  0.83251370  0.48603076     0.04300
C1461       C  0.18042696  0.83750287  0.49703590    -0.14900
C1462       C  0.18680011  0.86286709  0.50780146    -0.08200
C1463       C  0.12229768  0.89668366  0.50295582     0.05300
C1464       C  0.11045536  0.90591293  0.47427733    -0.09300
C1465       C  0.09036214  0.92385344  0.47618551     0.00300
C1466       C  0.08231230  0.93332106  0.50721021     0.00100
C1467       C  0.09383983  0.92371962  0.53597104    -0.12900
C1468       C  0.11342777  0.90511481  0.53406252     0.00600
C1469       C  0.07801746  0.93193202  0.44604148     0.39900
C1470       C  0.12342281  0.89405659  0.56416335     0.36500
C1471       C  0.17577305  0.90822880  0.52077899     0.36300
C1472       C  0.14719467  0.80750830  0.47279749     0.37000
N1473       N  0.06813747  0.93814538  0.42175935    -0.43800
N1474       N  0.13142119  0.88491310  0.58811991    -0.44200
N1475       N  0.14075864  0.78748540  0.46230728    -0.41600
N1476       N  0.18180120  0.92874052  0.53008921    -0.43000
H1477       H  0.20612081  0.86722761  0.51589178     0.13200
H1478       H  0.11726108  0.84824783  0.47976072     0.09600
H1479       H  0.11681502  0.89888939  0.45038368     0.10700
H1480       H  0.08722059  0.93047879  0.55985543     0.16500
C1481       C  0.39641182  0.84124694  0.52198886    -0.01700
C1482       C  0.39208260  0.86793822  0.51572164     0.06900
C1483       C  0.36746710  0.87642705  0.50755977    -0.07700
C1484       C  0.34715702  0.85874836  0.50491490     0.04300
C1485       C  0.35141428  0.83162435  0.51023736    -0.14900
C1486       C  0.37619698  0.82336961  0.51918094    -0.08200
C1487       C  0.41302163  0.88742338  0.51614921     0.05300
C1488       C  0.43088463  0.88727366  0.49032599    -0.09300
C1489       C  0.44943694  0.90692332  0.48794043     0.00300
C1490       C  0.45048674  0.92682097  0.51200559     0.00100
C1491       C  0.43283615  0.92680635  0.53806079    -0.12900
C1492       C  0.41402856  0.90737656  0.54017067     0.00600
C1493       C  0.46662214  0.90693965  0.46004946     0.39900
C1494       C  0.39578179  0.90839017  0.56689257     0.36500
C1495       C  0.42127342  0.83190294  0.53205458     0.36300
C1496       C  0.32243534  0.86934440  0.49627069     0.37000
N1497       N  0.48041587  0.90716324  0.43771863    -0.43800
N1498       N  0.38104610  0.90919609  0.58818223    -0.44200
N1499       N  0.30265020  0.87797442  0.48953689    -0.41600
N1500       N  0.44115170  0.82441249  0.54031015    -0.43000
H1501       H  0.37985777  0.80290200  0.52429058     0.13200
H1502       H  0.36420231  0.89704417  0.50281485     0.09600
H1503       H  0.42979338  0.87223249  0.47147750     0.10700
H1504       H  0.43359687  0.94219653  0.55648089     0.16500
C1505       C  0.12859142  0.73985161  0.38490757    -0.01700
C1506       C  0.12980371  0.74870512  0.35211125     0.06900
C1507       C  0.15353528  0.75692081  0.33942095    -0.07700
C1508       C  0.17575504  0.75702170  0.35915960     0.04300
C1509       C  0.17442527  0.74895669  0.39252182    -0.14900
C1510       C  0.15059595  0.74005345  0.40460696    -0.08200
C1511       C  0.10658960  0.74872338  0.33059854     0.05300
C1512       C  0.08795762  0.76816503  0.33464077    -0.09300
C1513       C  0.06550190  0.76825500  0.31548796     0.00300
C1514       C  0.06092202  0.74827496  0.29162437     0.00100
C1515       C  0.08011072  0.72897642  0.28776523    -0.12900
C1516       C  0.10250703  0.72907751  0.30688927     0.00600
C1517       C  0.04754366  0.78928028  0.32103494     0.39900
C1518       C  0.12095410  0.70839895  0.30217710     0.36500
C1519       C  0.10506135  0.72987707  0.39876964     0.36300
C1520       C  0.19940613  0.76586616  0.34458987     0.37000
N1521       N  0.03327501  0.80619929  0.32562982    -0.43800
N1522       N  0.13573832  0.69181828  0.29846506    -0.44200
N1523       N  0.21839842  0.77284339  0.33282492    -0.41600
N1524       N  0.08632627  0.72172446  0.41001714    -0.43000
H1525       H  0.14900812  0.73303464  0.42974803     0.13200
H1526       H  0.15466073  0.76337942  0.31400392     0.09600
H1527       H  0.09098650  0.78337147  0.35292369     0.10700
H1528       H  0.07830688  0.71353139  0.26987803     0.16500
C1529       C  0.42777805  0.72582323  0.31422919    -0.01700
C1530       C  0.41775885  0.74933967  0.32729592     0.06900
C1531       C  0.43093956  0.77283554  0.32137188    -0.07700
C1532       C  0.45375835  0.77316728  0.30309135     0.04300
C1533       C  0.46387293  0.74968555  0.29027466    -0.14900
C1534       C  0.45062826  0.72617527  0.29584183    -0.08200
C1535       C  0.39490460  0.74964692  0.34954459     0.05300
C1536       C  0.39828923  0.75717021  0.38245226    -0.09300
C1537       C  0.37779735  0.75734385  0.40475637     0.00300
C1538       C  0.35290748  0.74934851  0.39447595     0.00100
C1539       C  0.34946548  0.74255654  0.36108503    -0.12900
C1540       C  0.37008252  0.74291431  0.33868456     0.00600
C1541       C  0.38318236  0.76656123  0.43774861     0.39900
C1542       C  0.36518461  0.73734714  0.30438222     0.36500
C1543       C  0.41559360  0.70100898  0.32082299     0.36300
C1544       C  0.46681625  0.79778442  0.29852460     0.37000
N1545       N  0.38781519  0.77389965  0.46409327    -0.43800
N1546       N  0.36132367  0.73314794  0.27678239    -0.44200
N1547       N  0.47718810  0.81758372  0.29488715    -0.41600
N1548       N  0.40564234  0.68123514  0.32622492    -0.43000
H1549       H  0.45858765  0.70796325  0.28674623     0.13200
H1550       H  0.42357918  0.79094683  0.33159785     0.09600
H1551       H  0.41720007  0.76294285  0.39081514     0.10700
H1552       H  0.33064361  0.73689210  0.35237582     0.16500
C1553       C  0.25884755  0.88871986  0.39036620    -0.01700
C1554       C  0.25981307  0.88686198  0.35573279     0.06900
C1555       C  0.26468345  0.86230376  0.34137788    -0.00700
C1556       C  0.26737672  0.83962328  0.36087016     0.04300
C1557       C  0.26464318  0.84114673  0.39563888    -0.14900
C1558       C  0.26091607  0.86617188  0.40973329    -0.08200
C1559       C  0.25473407  0.91012107  0.33429659     0.05300
C1560       C  0.27426233  0.92037632  0.31427614    -0.09300
C1561       C  0.26983494  0.94203001  0.29355159     0.00300
C1562       C  0.24542696  0.95405325  0.29276549     0.00100
C1563       C  0.22606307  0.94377194  0.31318403    -0.12900
C1564       C  0.23038031  0.92199755  0.33339214     0.00600
C1565       C  0.29032159  0.95036616  0.27216786     0.39900
C1566       C  0.20914758  0.91155297  0.35203178     0.36500
C1567       C  0.25615115  0.91366852  0.40678790     0.36300
C1568       C  0.27368156  0.81542741  0.34442292     0.37000
N1569       N  0.30699377  0.95672268  0.25517507    -0.43800
N1570       N  0.19208616  0.90316219  0.36684939    -0.44200
N1571       N  0.27904127  0.79618285  0.33103657    -0.41600
N1572       N  0.25417410  0.93357207  0.42018622    -0.43000
H1573       H  0.25935447  0.86837662  0.43624892     0.13200
H1574       H  0.26609124  0.86079743  0.31476120     0.09600
H1575       H  0.29297667  0.91123041  0.31458095     0.10700
H1576       H  0.20720813  0.95260868  0.31309321     0.16500
C1577       C  0.25111386  0.59326240  0.29282585    -0.01700
C1578       C  0.25278193  0.59175055  0.32753498     0.06900
C1579       C  0.25138855  0.56697728  0.34258793    -0.07700
C1580       C  0.24809971  0.54412929  0.32375267     0.04300
C1581       C  0.24517789  0.54590496  0.28930341    -0.14900
C1582       C  0.24696049  0.57052698  0.27416142    -0.08200
C1583       C  0.25567839  0.61570021  0.34851452     0.05300
C1584       C  0.23718760  0.63570481  0.34679049    -0.09300
C1585       C  0.23873727  0.65791078  0.36722137     0.00300
C1586       C  0.25914613  0.66040769  0.38977481     0.00100
C1587       C  0.27761326  0.64057434  0.39137930    -0.12900
C1588       C  0.27613202  0.61846993  0.37103018     0.00600
C1589       C  0.21828116  0.67688194  0.36634034     0.39900
C1590       C  0.29596342  0.59897210  0.37377925     0.36500
C1591       C  0.25429832  0.61780665  0.27574029     0.36300
C1592       C  0.24706339  0.51921991  0.34039665     0.37000
N1593       N  0.20179249  0.69197524  0.36589517    -0.43800
N1594       N  0.31186918  0.58337058  0.37625986    -0.44200
N1595       N  0.25054553  0.00057078  0.35388795    -0.41600
N1596       N  0.25703366  0.63747024  0.26207710    -0.43000
H1597       H  0.24503729  0.57196386  0.24758953     0.13200
H1598       H  0.25259936  0.56550465  0.36921305     0.09600
H1599       H  0.22109929  0.63359909  0.33010861     0.10700
H1600       H  0.29318289  0.64225546  0.40895605     0.16500
O1601       O  0.76015813  0.20731292  0.40532089    -0.79800
O1602       O  0.76010450  0.20161439  0.59522259    -0.81400
O1603       O  0.80291447  0.17294874  0.49984778    -0.78400
O1604       O  0.71920619  0.17550939  0.49921440    -0.76800
O1605       O  0.68928538  0.20794604  0.50184191    -0.78600
O1606       O  0.83421332  0.20406384  0.50015675    -0.79500
O1607       O  0.75918520  0.17218524  0.55255457    -0.80800
O1608       O  0.76124738  0.17546015  0.44513036    -0.81100
Eu1609     Eu  0.76160659  0.19574795  0.50001853     2.39200
O1610       O  0.73655612  0.22154858  0.53562663    -0.88600
O1611       O  0.78743014  0.22229336  0.46626498    -0.92200
C1612       C  0.76028011  0.18311590  0.41484588     1.02500
C1613       C  0.75867830  0.17802926  0.58352289     1.02300
C1614       C  0.82660401  0.18008869  0.49966442     1.02200
C1615       C  0.69592616  0.18375803  0.50012111     1.00100
H1616       H  0.79824234  0.20865709  0.54856904     0.29800
O1617       O  0.78767519  0.22027929  0.53568201    -1.01000
H1618       H  0.72525779  0.21326831  0.45391697     0.29900
O1619       O  0.73636955  0.22363139  0.46749539    -1.03500
O1620       O  0.76374966  0.29014830  0.59911899    -0.80800
O1621       O  0.76184346  0.29560527  0.40996378    -0.80300
O1622       O  0.83513596  0.24575997  0.55524561    -0.78700
O1623       O  0.69019197  0.24934608  0.55664953    -0.82100
O1624       O  0.68911134  0.25040591  0.45051416    -0.79900
O1625       O  0.83432016  0.24960932  0.44836681    -0.78600
O1626       O  0.80637089  0.32044915  0.50849851    -0.80100
O1627       O  0.72250509  0.32354385  0.50538608    -0.82000
O1628       O  0.83642681  0.28824934  0.50654676    -0.78800
O1629       O  0.69149492  0.29233552  0.50317149    -0.81400
O1630       O  0.80583457  0.24519070  0.59704515    -0.77200
O1631       O  0.80498728  0.25229409  0.40679619    -0.77200
O1632       O  0.71807319  0.25101622  0.40834352    -0.76900
O1633       O  0.71952662  0.24701929  0.59839455    -0.80400
O1634       O  0.76548770  0.32178329  0.55916808    -0.79800
O1635       O  0.76450807  0.32467326  0.45264279    -0.78100
Eu1636     Eu  0.76253551  0.24643065  0.57151148     2.39800
Eu1637     Eu  0.76191807  0.25056456  0.43351168     2.39600
Eu1638     Eu  0.81338107  0.24685679  0.50204464     2.38400
Eu1639     Eu  0.71173679  0.24958051  0.50310566     2.39900
Eu1640     Eu  0.76378635  0.30081936  0.50498932     2.39800
O1641       O  0.73718537  0.27648926  0.46967881    -0.92500
O1642       O  0.78859074  0.27272872  0.53751694    -0.91400
C1643       C  0.76487950  0.31434114  0.58951770     1.02600
C1644       C  0.76323598  0.31922372  0.42158766     1.01400
C1645       C  0.82915391  0.24525410  0.58604769     1.00800
C1646       C  0.69624288  0.24843141  0.58745258     1.02800
C1647       C  0.69478425  0.25057318  0.41957792     1.01700
C1648       C  0.82834071  0.25204424  0.41772600     1.00500
C1649       C  0.82971945  0.31242413  0.50877678     1.00600
C1650       C  0.69885733  0.31630838  0.50427690     1.03200
H1651       H  0.79951731  0.28629995  0.45677911     0.30600
O1652       O  0.78857961  0.27506228  0.46931795    -1.04700
H1653       H  0.72702734  0.28550943  0.55220610     0.32600
O1654       O  0.73751577  0.27458825  0.53846937    -1.07200
N1655       N  0.97422292  0.99575924  0.50333062    -0.36300
N1656       N  0.51100097  0.03797438  0.49663440    -0.56800
N1657       N  0.55229843  0.00046791  0.50641069    -0.36300
N1658       N  0.51498846  0.45750136  0.50911065    -0.56800
C1659       C  0.95892005  0.01524754  0.49257649     0.27300
C1660       C  0.96096699  0.47228220  0.50184553     0.27300
C1661       C  0.56580568  0.02202039  0.49799924     0.27300
C1662       C  0.56692313  0.48038756  0.50385285     0.27300
C1663       C  0.98934305  0.05222110  0.49947052     0.35900
C1664       C  0.53063947  0.05483706  0.50094429     0.35900
C1665       C  0.99544129  0.44122532  0.51639171     0.35900
C1666       C  0.53663039  0.44430626  0.51601683     0.35900
C1667       C  0.93590807  0.00488481  0.48159863    -0.21600
C1668       C  0.93695823  0.47810336  0.48931725    -0.21600
C1669       C  0.59061173  0.01493273  0.48981245    -0.21600
C1670       C  0.58977096  0.48985193  0.49115712    -0.21600
C1671       C  0.99524474  0.07832615  0.50484173    -0.22600
C1672       C  0.52146169  0.07999004  0.50571129    -0.22600
C1673       C  0.00468851  0.41753952  0.52792384    -0.22600
C1674       C  0.53089945  0.41938457  0.52724589    -0.22600
C1675       C  0.96435778  0.04219250  0.49546653    -0.18000
C1676       C  0.96949770  0.44698184  0.51031596    -0.18000
C1677       C  0.56140228  0.45373083  0.50932931    -0.18000
C1678       C  0.55677334  0.04805770  0.49918928    -0.18000
H1679       H  0.91954988  0.01544219  0.47214742     0.14900
H1680       H  0.92194601  0.46446579  0.48269382     0.14900
H1681       H  0.60613397  0.02771754  0.48251608     0.14900
H1682       H  0.60597483  0.47858474  0.48251590     0.14900
H1683       H  0.98208151  0.09451812  0.50756528     0.13200
H1684       H  0.53249026  0.09768414  0.50945146     0.13200
H1685       H  0.99374461  0.40051686  0.53521492     0.13200
H1686       H  0.54421899  0.40414274  0.53413229     0.13200
H1687       H  0.99095382  0.99814806  0.51682046     0.26500
H1688       H  0.53429347  0.00040518  0.51718931     0.26500
O1689       O  0.98790495  0.45468688  0.90589348    -0.79800
O1690       O  0.98749255  0.45471809  0.09643327    -0.81400
O1691       O  0.53028182  0.42568842  0.99968229    -0.78400
O1692       O  0.94672923  0.42164261  0.00020253    -0.76800
O1693       O  0.91442701  0.45147800  0.00089319    -0.78600
O1694       O  0.55944766  0.45889901  0.99877241    -0.79500
O1695       O  0.98781215  0.42411241  0.05509592    -0.80800
O1696       O  0.98725427  0.42375146  0.94678990    -0.81100
Eu1697     Eu  0.98748163  0.44553239  0.00103222     2.39200
O1698       O  0.96078252  0.47048368  0.03576623    -0.88600
O1699       O  0.51239653  0.47286658  0.96708709    -0.92200
C1700       C  0.98770824  0.43073425  0.91619812     1.02500
C1701       C  0.98804281  0.43076573  0.08582022     1.02300
C1702       C  0.55345499  0.43439432  0.99849339     1.02200
C1703       C  0.92279627  0.42771702  0.00005247     1.00100
H1704       H  0.52336700  0.46256093  0.04839617     0.29800
O1705       O  0.51205255  0.47320579  0.03504572    -1.01000
H1706       H  0.95053977  0.45931347  0.95352453     0.29900
O1707       O  0.96079286  0.47067217  0.96708148    -1.03500
O1708       O  0.98324884  0.04479431  0.09352736    -0.80800
O1709       O  0.98453138  0.04034922  0.90422328    -0.80300
O1710       O  0.55786869  0.50038234  0.05484024    -0.78700
O1711       O  0.91307032  0.49586038  0.05607195    -0.82100
O1712       O  0.91312500  0.49515717  0.94734224    -0.79900
O1713       O  0.55865867  0.50376700  0.94752871    -0.78600
O1714       O  0.52305508  0.07471570  0.99816068    -0.80100
O1715       O  0.93868075  0.06936523  0.99542084    -0.82000
O1716       O  0.55524127  0.04456499  0.99969824    -0.78800
O1717       O  0.90976481  0.03602672  0.99580591    -0.81400
O1718       O  0.52827047  0.49988756  0.09633673    -0.77200
O1719       O  0.52891219  0.99868621  0.90569969    -0.77200
O1720       O  0.94350190  0.99449854  0.90503302    -0.76900
O1721       O  0.94306178  0.49744641  0.09718665    -0.80400
O1722       O  0.97970212  0.07454107  0.05159970    -0.79800
O1723       O  0.98055629  0.07198907  0.94409518    -0.78100
Eu1724     Eu  0.98545838  0.49862042  0.06981284     2.39800
Eu1725     Eu  0.98570978  0.49823769  0.93287383     2.39600
Eu1726     Eu  0.53656697  0.50076791  0.00106639     2.38400
Eu1727     Eu  0.93387845  0.49532939  0.00160687     2.39900
Eu1728     Eu  0.98209297  0.05108598  0.99865323     2.39800
O1729       O  0.95852061  0.02227480  0.96529186    -0.92500
O1730       O  0.50949795  0.02707997  0.03349873    -0.91400
C1731       C  0.98080080  0.06847319  0.08247092     1.02600
C1732       C  0.98227865  0.06444851  0.91376917     1.01400
C1733       C  0.55162094  0.50008337  0.08563117     1.00800
C1734       C  0.91966015  0.49686485  0.08676900     1.02800
C1735       C  0.92003232  0.99346966  0.91511237     1.01700
C1736       C  0.55209036  0.00148524  0.91638446     1.00500
C1737       C  0.54692839  0.06823251  0.99868531     1.00600
C1738       C  0.91554485  0.06048313  0.99448000     1.03200
H1739       H  0.51982484  0.03687040  0.95209541     0.30600
O1740       O  0.50955271  0.02549125  0.96577526    -1.04700
H1741       H  0.94634457  0.03477437  0.04636199     0.32600
O1742       O  0.95780854  0.02406989  0.03350895    -1.07200
N1743       N  0.69567841  0.25165322  0.97758769    -0.36300
N1744       N  0.73083071  0.20751286  0.97608228    -0.56800
N1745       N  0.77321996  0.24407694  0.97825922    -0.36300
N1746       N  0.73807637  0.28813812  0.97574232    -0.56800
C1747       C  0.67916657  0.23185581  0.97157590     0.27300
C1748       C  0.68309553  0.27427975  0.97180541     0.27300
C1749       C  0.78579920  0.22152755  0.97204510     0.27300
C1750       C  0.78962158  0.26387471  0.97179701     0.27300
C1751       C  0.70877315  0.19448961  0.98172642     0.35900
C1752       C  0.74999974  0.19041293  0.98189828     0.35900
C1753       C  0.71897119  0.30511536  0.98229043     0.35900
C1754       C  0.76005551  0.30103100  0.98216754     0.35900
C1755       C  0.65575359  0.24200823  0.96183342    -0.21600
C1756       C  0.65824039  0.26882714  0.96199122    -0.21600
C1757       C  0.81052806  0.22707572  0.96167772    -0.21600
C1758       C  0.81293449  0.25383462  0.96153313    -0.21600
C1759       C  0.71394123  0.16881478  0.99050940    -0.22600
C1760       C  0.74010861  0.16625031  0.99066876    -0.22600
C1761       C  0.72883161  0.32901973  0.99229052    -0.22600
C1762       C  0.75493023  0.32642670  0.99221436    -0.22600
C1763       C  0.68402449  0.20508628  0.97751560    -0.18000
C1764       C  0.69276091  0.29961075  0.97821674    -0.18000
C1765       C  0.78473531  0.29064043  0.97736910    -0.18000
C1766       C  0.77626022  0.19609388  0.97790248    -0.18000
H1767       H  0.63849770  0.23123532  0.95596129     0.14900
H1768       H  0.64329440  0.28274310  0.95627521     0.14900
H1769       H  0.82543826  0.21326338  0.95534962     0.14900
H1770       H  0.83003737  0.26465954  0.95512117     0.14900
H1771       H  0.70029405  0.15351295  0.99614068     0.13200
H1772       H  0.75063553  0.14862066  0.99643944     0.13200
H1773       H  0.71833169  0.34648121  0.99898252     0.13200
H1774       H  0.76857043  0.34150512  0.99880068     0.13200
H1775       H  0.71318932  0.24992347  0.98940738     0.26500
H1776       H  0.75577173  0.24578135  0.99030033     0.26500
C1777       C  0.53413187  0.24638468  0.27434150     0.86800
C1778       C  0.52984724  0.22295665  0.25065872    -0.53400
C1779       C  0.00801586  0.22438096  0.23211251     0.09700
C1780       C  0.99197729  0.24901377  0.23911834     0.20700
C1781       C  0.53249744  0.27042195  0.25164515    -0.54100
C1782       C  0.01069400  0.27196721  0.23301406     0.09800
C1783       C  0.00940294  0.24720587  0.29488912    -0.53700
C1784       C  0.98747458  0.24859336  0.27668621     0.10400
H1785       H  0.54222149  0.20616085  0.24840407     0.14900
H1786       H  0.97410084  0.25011885  0.22438696     0.00700
H1787       H  0.54736521  0.28526080  0.25086046     0.15200
H1788       H  0.00924230  0.24690749  0.32167157     0.15000
C1789       C  0.71147315  0.49849619  0.22984158     0.86800
C1790       C  0.71609124  0.47471065  0.25257086    -0.53400
C1791       C  0.73881799  0.47499622  0.26920371     0.09700
C1792       C  0.75535050  0.49928904  0.26142603     0.20700
C1793       C  0.71490745  0.02319980  0.25313227    -0.54100
C1794       C  0.73771840  0.02392193  0.26938860     0.09800
C1795       C  0.73512528  0.49883729  0.20726427    -0.53700
C1796       C  0.75811530  0.49900083  0.22348696     0.10400
H1797       H  0.70314846  0.45846031  0.25575898     0.14900
H1798       H  0.77382063  0.49992269  0.27491797     0.00700
H1799       H  0.70067046  0.03853883  0.25576258     0.15200
H1800       H  0.73366332  0.49922033  0.18056671     0.15000
C1801       C  0.53378570  0.24928434  0.72866580     0.86800
C1802       C  0.53210524  0.27099559  0.75509687    -0.53400
C1803       C  0.01060315  0.27019341  0.77417835     0.09700
C1804       C  0.99233047  0.24759071  0.76531919     0.20700
C1805       C  0.53033177  0.22361812  0.74777235    -0.54100
C1806       C  0.00872256  0.22245818  0.76687346     0.09800
C1807       C  0.00858563  0.25287473  0.70948324    -0.53700
C1808       C  0.98680962  0.25145652  0.72831941     0.10400
H1809       H  0.54535151  0.28726889  0.75696284     0.14900
H1810       H  0.97495533  0.24717290  0.78104798     0.00700
H1811       H  0.54401795  0.20768186  0.74636437     0.15200
H1812       H  0.00794749  0.25650894  0.68315424     0.15000
C1813       C  0.71332752  0.49770975  0.77506664     0.86800
C1814       C  0.71775052  0.02243994  0.75650301    -0.53400
C1815       C  0.73883456  0.02260555  0.73668028     0.09700
C1816       C  0.75497276  0.49834709  0.73863725     0.20700
C1817       C  0.71526661  0.47492364  0.75040587    -0.54100
C1818       C  0.73695677  0.47493792  0.73138356     0.09800
C1819       C  0.73870991  0.49619749  0.79480871    -0.53700
C1820       C  0.76038193  0.49654654  0.77584451     0.10400
H1821       H  0.70442525  0.03869824  0.75751820     0.14900
H1822       H  0.77260615  0.49851734  0.72334239     0.00700
H1823       H  0.70113701  0.45935166  0.74929696     0.15200
H1824       H  0.74023234  0.49548068  0.82136821     0.15000
C1825       C  0.61854625  0.48922741  0.11887517    -0.01700
C1826       C  0.61720073  0.49997467  0.15077492     0.06900
C1827       C  0.59334143  0.01058350  0.16243268    -0.07700
C1828       C  0.57151780  0.01017949  0.14205198     0.04300
C1829       C  0.57333005  0.49945311  0.10960204    -0.14900
C1830       C  0.59688477  0.48918546  0.09866289    -0.08200
C1831       C  0.64001238  0.50026370  0.17262000     0.05300
C1832       C  0.65799601  0.02330766  0.17066523    -0.09300
C1833       C  0.68065241  0.02270530  0.18931729     0.00300
C1834       C  0.68601983  0.49941732  0.21037247     0.00100
C1835       C  0.66768218  0.47906616  0.21257199    -0.12900
C1836       C  0.64508061  0.47939222  0.19404789     0.00600
C1837       C  0.69787395  0.04472261  0.18624765     0.39900
C1838       C  0.62746415  0.45771038  0.19689600     0.36500
C1839       C  0.64187762  0.47768969  0.10649695     0.36300
C1840       C  0.54746607  0.01835082  0.15616392     0.37000
N1841       N  0.71147220  0.06251403  0.18387522    -0.43800
N1842       N  0.61332313  0.44036401  0.19910590    -0.44200
N1843       N  0.52821222  0.02478171  0.16770984    -0.41600
N1844       N  0.66045157  0.46824703  0.09650504    -0.43000
H1845       H  0.59846268  0.48089842  0.07410432     0.13200
H1846       H  0.59162194  0.01677649  0.18792957     0.09600
H1847       H  0.65435862  0.03962226  0.15425435     0.10700
H1848       H  0.67040071  0.46238753  0.22825072     0.16500
C1849       C  0.82619208  0.01697538  0.19816007    -0.01700
C1850       C  0.83114525  0.49899300  0.17305708     0.06900
C1851       C  0.81189760  0.48149362  0.16345091    -0.07700
C1852       C  0.78813479  0.48115281  0.17942046     0.04300
C1853       C  0.78327321  0.49852943  0.20595058    -0.14900
C1854       C  0.80283889  0.01642710  0.21546483    -0.08200
C1855       C  0.85486738  0.50030683  0.15284230     0.05300
C1856       C  0.87686805  0.48652450  0.16251422    -0.09300
C1857       C  0.89858499  0.48547645  0.14194624     0.00300
C1858       C  0.89837054  0.49846602  0.11113074     0.00100
C1859       C  0.87419258  0.01062677  0.09782022    -0.12900
C1860       C  0.85250100  0.01138712  0.11800060     0.00600
C1861       C  0.92008977  0.46973681  0.15215256     0.39900
C1862       C  0.82923332  0.02249136  0.10488398     0.36500
C1863       C  0.84562106  0.03551797  0.20789495     0.36300
C1864       C  0.76933882  0.46240051  0.16827563     0.37000
N1865       N  0.93726352  0.45702986  0.16034363    -0.43800
N1866       N  0.81059918  0.03128517  0.09422271    -0.44200
N1867       N  0.75423638  0.44750740  0.15907960    -0.41600
N1868       N  0.86128420  0.05032250  0.21563900    -0.43000
H1869       H  0.79977412  0.02993134  0.23573364     0.13200
H1870       H  0.81534471  0.46833070  0.14291064     0.09600
H1871       H  0.87676465  0.47593561  0.18566408     0.10700
H1872       H  0.87294436  0.01873837  0.07319907     0.16500
C1873       C  0.47876459  0.36282517  0.12111825    -0.01700
C1874       C  0.99365620  0.36339564  0.15003439     0.06900
C1875       C  0.00643937  0.38670696  0.15846972    -0.07700
C1876       C  0.00450841  0.40919106  0.13855876     0.04300
C1877       C  0.98905298  0.40873565  0.10990999    -0.14900
C1878       C  0.47619389  0.38539118  0.10184131    -0.08200
C1879       C  0.99730736  0.33943024  0.17058376     0.05300
C1880       C  0.52100954  0.32663881  0.16986244    -0.09300
C1881       C  0.52529294  0.30396263  0.18853870     0.00300
C1882       C  0.00587578  0.29407400  0.20954561     0.00100
C1883       C  0.98178703  0.30629553  0.20915397    -0.12900
C1884       C  0.97738050  0.32871722  0.18988896     0.00600
C1885       C  0.54935253  0.29050768  0.18427865     0.39900
C1886       C  0.95241191  0.34073584  0.19078068     0.36500
C1887       C  0.46750544  0.33875835  0.10936298     0.36300
C1888       C  0.02028798  0.43154599  0.14648662     0.37000
N1889       N  0.56858881  0.27968240  0.18063956    -0.43800
N1890       N  0.93237438  0.35034326  0.19134183    -0.44200
N1891       N  0.03323182  0.44928689  0.15262715    -0.41600
N1892       N  0.45883078  0.31938148  0.09966924    -0.43000
H1893       H  0.46468417  0.38447060  0.07961876     0.13200
H1894       H  0.01855929  0.38708314  0.18016762     0.09600
H1895       H  0.53610881  0.33417161  0.15414376     0.10700
H1896       H  0.96653194  0.29875141  0.22457171     0.16500
C1897       C  0.99903019  0.11220196  0.15460089    -0.01700
C1898       C  0.98441487  0.13495798  0.14868662     0.06900
C1899       C  0.96671385  0.13478211  0.12268852    -0.07700
C1900       C  0.96433881  0.11291303  0.10180297     0.04300
C1901       C  0.97999147  0.09058203  0.10663245    -0.14900
C1902       C  0.99664665  0.09031390  0.13381517    -0.08200
C1903       C  0.98881500  0.15950784  0.16800888     0.05300
C1904       C  0.51254936  0.17211399  0.16505383    -0.09300
C1905       C  0.51870952  0.19382625  0.18464540     0.00300
C1906       C  0.00087284  0.20353141  0.20789380     0.00100
C1907       C  0.97650844  0.19189374  0.20949682    -0.12900
C1908       C  0.97041436  0.16997405  0.18989393     0.00600
C1909       C  0.54357454  0.20572382  0.18042728     0.39900
C1910       C  0.94567488  0.15779346  0.19377888     0.36500
C1911       C  0.01688518  0.11102473  0.18170932     0.36300
C1912       C  0.44531956  0.11377226  0.07604345     0.37000
N1913       N  0.56358006  0.21512122  0.17724794    -0.43800
N1914       N  0.92584446  0.14800115  0.19690593    -0.44200
N1915       N  0.42989632  0.11458192  0.05560677    -0.41600
N1916       N  0.03118660  0.11016828  0.20345680    -0.43000
H1917       H  0.00863444  0.07335767  0.13807805     0.13200
H1918       H  0.95516272  0.15202808  0.11820217     0.09600
H1919       H  0.52656251  0.16459449  0.14772671     0.10700
H1920       H  0.96260679  0.19920527  0.22709057     0.16500
C1921       C  0.65261367  0.35944507  0.96012879    -0.01700
C1922       C  0.63856834  0.36204286  0.98964908     0.06900
C1923       C  0.64325325  0.34487910  0.01588488    -0.07700
C1924       C  0.66117412  0.32472845  0.01263281     0.04300
C1925       C  0.67428226  0.32134071  0.98256424    -0.14900
C1926       C  0.67028210  0.33904380  0.95671716    -0.08200
C1927       C  0.61717475  0.38080852  0.99246696     0.05300
C1928       C  0.59255599  0.37208019  0.98448768    -0.09300
C1929       C  0.57149824  0.38891949  0.98620907     0.00300
C1930       C  0.57490657  0.41520803  0.99667410     0.00100
C1931       C  0.59981389  0.42372545  0.00481579    -0.12900
C1932       C  0.62084791  0.40686736  0.00256568     0.00600
C1933       C  0.54702350  0.37868156  0.97578321     0.39900
C1934       C  0.64600288  0.41683136  0.01031795     0.36500
C1935       C  0.64893372  0.37728122  0.93299018     0.36300
C1936       C  0.66607377  0.30777295  0.04036602     0.37000
N1937       N  0.52754187  0.37026265  0.96726049    -0.43800
N1938       N  0.66610992  0.42503227  0.01639815    -0.44200
N1939       N  0.67033598  0.29412447  0.06242450    -0.41600
N1940       N  0.64610871  0.39166484  0.91129245    -0.43000
H1941       H  0.68080847  0.33673795  0.93384408     0.13200
H1942       H  0.63259618  0.34700422  0.03868749     0.09600
H1943       H  0.58987178  0.35201977  0.97638041     0.10700
H1944       H  0.60299932  0.44369891  0.01289529     0.16500
C1945       C  0.84197276  0.32726713  0.01023732    -0.01700
C1946       C  0.84636157  0.34580666  0.98506979     0.06900
C1947       C  0.83132729  0.34504589  0.95637395    -0.07700
C1948       C  0.81140086  0.32696013  0.95317809     0.04300
C1949       C  0.80675509  0.30886735  0.97864638    -0.14900
C1950       C  0.82235467  0.30886946  0.00672619    -0.08200
C1951       C  0.86577785  0.36680948  0.98888781     0.05300
C1952       C  0.89139792  0.36002138  0.99417312    -0.09300
C1953       C  0.91014052  0.37920696  0.99913037     0.00300
C1954       C  0.90349825  0.40615007  0.99763237     0.00100
C1955       C  0.87761781  0.41273070  0.99234638    -0.12900
C1956       C  0.85886838  0.39343588  0.98825529     0.00600
C1957       C  0.93572345  0.37024633  0.00638682     0.39900
C1958       C  0.83252396  0.40140672  0.98423244     0.36500
C1959       C  0.85650942  0.32756291  0.04051194     0.36300
C1960       C  0.79547473  0.32773439  0.92410146     0.37000
N1961       N  0.95609516  0.36277439  0.01237770    -0.43800
N1962       N  0.81136666  0.40754982  0.98095645    -0.44200
N1963       N  0.78251279  0.32842289  0.90098883    -0.41600
N1964       N  0.86827703  0.32791873  0.06467640    -0.43000
H1965       H  0.81862025  0.29499395  0.02636517     0.13200
H1966       H  0.83478775  0.35905801  0.93681461     0.09600
H1967       H  0.89673372  0.33951919  0.99478505     0.10700
H1968       H  0.87183923  0.43307257  0.99128653     0.16500
C1969       C  0.88189375  0.12524142  0.98075705    -0.01700
C1970       C  0.85599422  0.11842502  0.98465707     0.06900
C1971       C  0.84934975  0.09249648  0.99138301    -0.07700
C1972       C  0.86812279  0.07323662  0.99492183     0.04300
C1973       C  0.89439890  0.07989179  0.99127841    -0.14900
C1974       C  0.90076383  0.10609190  0.98412563    -0.08200
C1975       C  0.83543079  0.13816182  0.98329581     0.05300
C1976       C  0.81878383  0.13831179  0.95620221    -0.09300
C1977       C  0.79869329  0.15633602  0.95453560     0.00300
C1978       C  0.79526205  0.17460612  0.98024938     0.00100
C1979       C  0.81163692  0.17404822  0.00766136    -0.12900
C1980       C  0.83155569  0.15589109  0.00944779     0.00600
C1981       C  0.78203184  0.15589600  0.92617438     0.39900
C1982       C  0.84752369  0.15541214  0.03850666     0.36500
C1983       C  0.88954628  0.15172633  0.97321810     0.36300
C1984       C  0.85944246  0.04725279  0.00329862     0.37000
N1985       N  0.76857542  0.15531613  0.90353091    -0.43800
N1986       N  0.86033826  0.15483266  0.06176147    -0.44200
N1987       N  0.85202475  0.02660639  0.01007337    -0.41600
N1988       N  0.89575332  0.17293443  0.96723549    -0.43000
H1989       H  0.92060382  0.11179555  0.98095987     0.13200
H1990       H  0.82933193  0.08742076  0.99460993     0.09600
H1991       H  0.82157970  0.12437440  0.93632886     0.10700
H1992       H  0.80896500  0.18805103  0.02749053     0.16500
C1993       C  0.63483452  0.15424929  0.95375364    -0.01700
C1994       C  0.62248595  0.14979486  0.98415736     0.06900
C1995       C  0.62964178  0.16431899  0.01198656    -0.07700
C1996       C  0.64910000  0.18300564  0.00999818     0.04300
C1997       C  0.66189099  0.18704067  0.97981657    -0.14900
C1998       C  0.65447946  0.17281108  0.95181291    -0.08200
C1999       C  0.60280864  0.12928923  0.98798429     0.05300
C2000       C  0.60911848  0.10663265  0.00551427    -0.09300
C2001       C  0.59118107  0.08664941  0.00991053     0.00300
C2002       C  0.56621049  0.08938651  0.99673721     0.00100
C2003       C  0.55987986  0.11243416  0.97972193    -0.12900
C2004       C  0.57796939  0.13226115  0.97516222     0.00600
C2005       C  0.59894704  0.06389382  0.02848859     0.39900
C2006       C  0.57062811  0.15552943  0.95742619     0.36500
C2007       C  0.62821038  0.13942587  0.92463631     0.36300
C2008       C  0.65588470  0.19746984  0.03932381     0.37000
N2009       N  0.60527524  0.04566250  0.04326514    -0.43800
N2010       N  0.56478301  0.17417102  0.94315669    -0.44200
N2011       N  0.66110418  0.20900707  0.06296217    -0.41600
N2012       N  0.62284657  0.12754724  0.90131840    -0.43000
H2013       H  0.66437075  0.17592962  0.92863099     0.13200
H2014       H  0.62010935  0.16086077  0.03535115     0.09600
H2015       H  0.62822331  0.10453744  0.01564008     0.10700
H2016       H  0.54092617  0.11475225  0.96924013     0.16500
C2017       C  0.85241041  0.50109890  0.88209432    -0.01700
C2018       C  0.85553269  0.49387809  0.84881168     0.06900
C2019       C  0.88091978  0.97997606  0.83678441    -0.07700
C2020       C  0.90191863  0.98104789  0.85851104     0.04300
C2021       C  0.89905008  0.99245783  0.89020533    -0.14900
C2022       C  0.87353061  0.50187488  0.90318950    -0.08200
C2023       C  0.83301545  0.49234390  0.82636049     0.05300
C2024       C  0.83010515  0.00892559  0.80119237    -0.09300
C2025       C  0.80672251  0.01074383  0.78427607     0.00300
C2026       C  0.78642672  0.49466052  0.79072206     0.00100
C2027       C  0.79162204  0.47360846  0.81189293    -0.12900
C2028       C  0.81461555  0.47229624  0.82958951     0.00600
C2029       C  0.80264176  0.03320066  0.76347597     0.39900
C2030       C  0.81862785  0.45055410  0.85165701     0.36500
C2031       C  0.82765771  0.50817584  0.89518624     0.36300
C2032       C  0.92582945  0.96954717  0.84806871     0.37000
N2033       N  0.79999442  0.05144216  0.74698567    -0.43800
N2034       N  0.82178062  0.43311810  0.86935311    -0.44200
N2035       N  0.94508285  0.96042588  0.83988289    -0.41600
N2036       N  0.80788423  0.51390776  0.90580772    -0.43000
H2037       H  0.87047007  0.50754826  0.92866964     0.13200
H2038       H  0.88305707  0.97090326  0.81275222     0.09600
H2039       H  0.84433828  0.02422148  0.79834589     0.10700
H2040       H  0.77734279  0.45841729  0.81520865     0.16500
C2041       C  0.59854883  0.48140982  0.85032365    -0.01700
C2042       C  0.61643977  0.50212239  0.85024308     0.06900
C2043       C  0.61093734  0.02483879  0.86988846    -0.07700
C2044       C  0.58884415  0.02538841  0.88958535     0.04300
C2045       C  0.57319489  0.00291858  0.89209747    -0.14900
C2046       C  0.57698055  0.48248436  0.87103814    -0.08200
C2047       C  0.64097329  0.50040894  0.83135376     0.05300
C2048       C  0.64218169  0.00451740  0.79966851    -0.09300
C2049       C  0.66491397  0.00311528  0.78131460     0.00300
C2050       C  0.68780161  0.49783107  0.79476953     0.00100
C2051       C  0.68721007  0.49384606  0.82930617    -0.12900
C2052       C  0.66429996  0.49528019  0.84738800     0.00600
C2053       C  0.66293450  0.00748305  0.74623155     0.39900
C2054       C  0.66500744  0.49094033  0.88256806     0.36500
C2055       C  0.60263620  0.45830986  0.83052793     0.36300
C2056       C  0.58236120  0.04933798  0.90657250     0.37000
N2057       N  0.66124973  0.01159120  0.71826549    -0.43800
N2058       N  0.66527962  0.48748295  0.91075974    -0.44200
N2059       N  0.57709292  0.06866693  0.91981274    -0.41600
N2060       N  0.60600186  0.43979634  0.81465795    -0.43000
H2061       H  0.56385769  0.46603774  0.87179755     0.13200
H2062       H  0.62314353  0.04197793  0.86850338     0.09600
H2063       H  0.62415757  0.00812283  0.78721879     0.10700
H2064       H  0.70431528  0.48926108  0.84288734     0.16500
C2065       C  0.99035257  0.17956648  0.83994251    -0.01700
C2066       C  0.99203872  0.15402976  0.82645552     0.06900
C2067       C  0.49720832  0.15142430  0.79261944    -0.07700
C2068       C  0.50195572  0.17335056  0.77275932     0.04300
C2069       C  0.00184185  0.19877851  0.78666233    -0.14900
C2070       C  0.99537198  0.20156971  0.82010019    -0.08200
C2071       C  0.98889324  0.12983179  0.84706557     0.05300
C2072       C  0.96612846  0.12582712  0.86488469    -0.09300
C2073       C  0.96297233  0.10380492  0.88521705     0.00300
C2074       C  0.98293924  0.08541181  0.88848589     0.00100
C2075       C  0.50517766  0.08865160  0.86956534    -0.12900
C2076       C  0.50824332  0.11043438  0.84884738     0.00600
C2077       C  0.93850588  0.09961630  0.90082057     0.39900
C2078       C  0.53174054  0.11265484  0.83033460     0.36500
C2079       C  0.98390726  0.18376320  0.87416042     0.36300
C2080       C  0.50570874  0.16919936  0.73788160     0.37000
N2081       N  0.91858678  0.09600766  0.91241402    -0.43800
N2082       N  0.55048476  0.11418176  0.81524920    -0.44200
N2083       N  0.50852290  0.16568660  0.70992211    -0.41600
N2084       N  0.97841849  0.18719005  0.90147959    -0.43000
H2085       H  0.99477049  0.22097143  0.83094208     0.13200
H2086       H  0.49746547  0.13207715  0.78160351     0.09600
H2087       H  0.95066428  0.13984221  0.86267122     0.10700
H2088       H  0.52056722  0.07452915  0.87177339     0.16500
C2089       C  0.51268366  0.38344497  0.85186942    -0.01700
C2090       C  0.99319992  0.36424440  0.85120645     0.06900
C2091       C  0.97084846  0.36847407  0.86968189    -0.07700
C2092       C  0.96818556  0.39078535  0.88959946     0.04300
C2093       C  0.98817992  0.40933103  0.89149480    -0.14900
C2094       C  0.51000769  0.40578920  0.87182711    -0.08200
C2095       C  0.99621059  0.33920931  0.83248291     0.05300
C2096       C  0.51596161  0.32193486  0.84126631    -0.09300
C2097       C  0.52012478  0.29871442  0.82358076     0.00300
C2098       C  0.00416172  0.29216119  0.79681828     0.00100
C2099       C  0.98373235  0.30880215  0.78880784    -0.12900
C2100       C  0.97975342  0.33225465  0.80623293     0.00600
C2101       C  0.54097259  0.28189112  0.83325147     0.39900
C2102       C  0.95960465  0.34958525  0.79558180     0.36500
C2103       C  0.53566866  0.38055339  0.83243876     0.36300
C2104       C  0.94451890  0.39453804  0.90734960     0.37000
N2105       N  0.55764909  0.26834140  0.84095390    -0.43800
N2106       N  0.94354013  0.36359025  0.78705295    -0.44200
N2107       N  0.92536328  0.39763838  0.92112384    -0.41600
N2108       N  0.55409525  0.37817051  0.81688304    -0.43000
H2109       H  0.52539072  0.42003036  0.87297543     0.13200
H2110       H  0.95563718  0.35402884  0.86904644     0.09600
H2111       H  0.52840298  0.32682970  0.86177493     0.10700
H2112       H  0.97163518  0.30409964  0.76788412     0.16500
C2113       C  0.86673017  0.25812643  0.66489320    -0.01700
C2114       C  0.89208906  0.25315914  0.65480145     0.06900
C2115       C  0.89651491  0.24363342  0.62294336    -0.07700
C2116       C  0.87636514  0.23958869  0.60081118     0.04300
C2117       C  0.85083221  0.24580502  0.61014219    -0.14900
C2118       C  0.84641304  0.25452132  0.64263048    -0.08200
C2119       C  0.91442157  0.25610497  0.67727457     0.05300
C2120       C  0.91721442  0.23856126  0.70354812    -0.09300
C2121       C  0.94007624  0.23735436  0.72164760     0.00300
C2122       C  0.96072033  0.25417669  0.71359711     0.00100
C2123       C  0.95708980  0.27293618  0.68873270    -0.12900
C2124       C  0.93440944  0.27385714  0.67044795     0.00600
C2125       C  0.94206961  0.21738161  0.74657663     0.39900
C2126       C  0.93246081  0.29282756  0.64428336     0.36500
C2127       C  0.86121559  0.26777635  0.69758105     0.36300
C2128       C  0.88278066  0.22826884  0.56918209     0.37000
N2129       N  0.94295999  0.20124531  0.76651794    -0.43800
N2130       N  0.93128875  0.30818540  0.62342909    -0.44200
N2131       N  0.88826198  0.21908532  0.54404614    -0.41600
N2132       N  0.85678818  0.27555378  0.72378077    -0.43000
H2133       H  0.82712942  0.25925074  0.65049017     0.13200
H2134       H  0.91593087  0.23896938  0.61546940     0.09600
H2135       H  0.90195708  0.22476161  0.70876998     0.10700
H2136       H  0.97238349  0.28651149  0.68284289     0.16500
C2137       C  0.60374617  0.26175155  0.70090498    -0.01700
C2138       C  0.60478506  0.24978771  0.66968574     0.06900
C2139       C  0.58295870  0.23676160  0.65796548    -0.07700
C2140       C  0.56026046  0.23575783  0.67666896     0.04300
C2141       C  0.55843491  0.24931284  0.70732671    -0.14900
C2142       C  0.58101172  0.26130956  0.71933422    -0.08200
C2143       C  0.62867933  0.25019358  0.64936574     0.05300
C2144       C  0.65007960  0.23547399  0.65930470    -0.09300
C2145       C  0.67274017  0.23511003  0.64042261     0.00300
C2146       C  0.67426868  0.24980956  0.61097556     0.00100
C2147       C  0.65307958  0.26516025  0.60188216    -0.12900
C2148       C  0.63047485  0.26530853  0.62042963     0.00600
C2149       C  0.69351336  0.21856125  0.65101205     0.39900
C2150       C  0.60945438  0.28125662  0.60914108     0.36500
C2151       C  0.62588275  0.27474479  0.71457251     0.36300
C2152       C  0.53959495  0.21992054  0.66394299     0.37000
N2153       N  0.71008207  0.20521037  0.65961696    -0.43800
N2154       N  0.59280127  0.29410813  0.59965669    -0.44200
N2155       N  0.02306991  0.20728028  0.65358741    -0.41600
N2156       N  0.64366776  0.28510269  0.72549968    -0.43000
H2157       H  0.58154555  0.26984449  0.74370715     0.13200
H2158       H  0.58385593  0.22682656  0.63433299     0.09600
H2159       H  0.64888340  0.22385068  0.68159887     0.10700
H2160       H  0.65410851  0.27704301  0.57983477     0.16500
C2161       C  0.76990632  0.13476478  0.65837260    -0.01700
C2162       C  0.75483538  0.11248015  0.65096493     0.06900
C2163       C  0.74018174  0.11255592  0.62199848    -0.07700
C2164       C  0.74089152  0.13370747  0.60012723     0.04300
C2165       C  0.75637174  0.15580273  0.60708286    -0.14900
C2166       C  0.77044071  0.15614960  0.63660303    -0.08200
C2167       C  0.75312632  0.08927040  0.67337812     0.05300
C2168       C  0.74600830  0.09296950  0.70640571    -0.09300
C2169       C  0.74284577  0.07169238  0.72772724     0.00300
C2170       C  0.74529761  0.04574710  0.71572794     0.00100
C2171       C  0.75316843  0.04199465  0.68296306    -0.12900
C2172       C  0.75742555  0.06344060  0.66197070     0.00600
C2173       C  0.73851871  0.07716463  0.76224287     0.39900
C2174       C  0.76684835  0.05853765  0.62906374     0.36500
C2175       C  0.78557841  0.13592542  0.68763497     0.36300
C2176       C  0.72467597  0.13239310  0.57138762     0.37000
N2177       N  0.73528264  0.08144328  0.78996499    -0.43800
N2178       N  0.77457182  0.05481421  0.60272170    -0.44200
N2179       N  0.71147827  0.13088331  0.54858104    -0.41600
N2180       N  0.79805973  0.13694705  0.71116790    -0.43000
H2181       H  0.78242327  0.17289514  0.64229761     0.13200
H2182       H  0.72787032  0.09600078  0.61654627     0.09600
H2183       H  0.74286050  0.11262022  0.71565722     0.10700
H2184       H  0.75566280  0.02228488  0.67357908     0.16500
C2185       C  0.77916202  0.37970342  0.62988127    -0.01700
C2186       C  0.76014041  0.38119083  0.65458435     0.06900
C2187       C  0.74400271  0.35947700  0.65945660    -0.07700
C2188       C  0.74613073  0.33689235  0.63977046     0.04300
C2189       C  0.76472807  0.33568754  0.61454512    -0.14900
C2190       C  0.78129758  0.35714129  0.61024225    -0.08200
C2191       C  0.75521738  0.40587297  0.67356098     0.05300
C2192       C  0.73192061  0.41898331  0.66879894    -0.09300
C2193       C  0.72605888  0.44195420  0.68627851     0.00300
C2194       C  0.74364925  0.45237159  0.70935033     0.00100
C2195       C  0.76725470  0.43959250  0.71356539    -0.12900
C2196       C  0.77302829  0.41644225  0.69618981     0.00600
C2197       C  0.70204946  0.45474681  0.67942977     0.39900
C2198       C  0.79677900  0.40316709  0.70313982     0.36500
C2199       C  0.79568198  0.40165331  0.62281968     0.36300
C2200       C  0.72760075  0.31619105  0.64403390     0.37000
N2201       N  0.68277469  0.46486626  0.67366592    -0.43800
N2202       N  0.81577196  0.39242141  0.70869162    -0.44200
N2203       N  0.71267634  0.29963518  0.64717710    -0.41600
N2204       N  0.80894642  0.41922191  0.61712426    -0.43000
H2205       H  0.79544321  0.35661756  0.59065515     0.13200
H2206       H  0.72911286  0.36052952  0.67804819     0.09600
H2207       H  0.71821904  0.41121472  0.65122769     0.10700
H2208       H  0.78080730  0.44710448  0.73149050     0.16500
C2209       C  0.85843031  0.11447219  0.51337119    -0.01700
C2210       C  0.88277137  0.11838326  0.49912752     0.06900
C2211       C  0.88856453  0.14258807  0.48478158    -0.07700
C2212       C  0.87070367  0.16292709  0.48459712     0.04300
C2213       C  0.84634883  0.15924319  0.49922286    -0.14900
C2214       C  0.84057227  0.13487015  0.51349223    -0.08200
C2215       C  0.90262758  0.09766025  0.49858659     0.05300
C2216       C  0.91200136  0.08889027  0.46801606    -0.09300
C2217       C  0.93210623  0.07084760  0.46641599     0.00300
C2218       C  0.94261207  0.06082097  0.49574158     0.00100
C2219       C  0.93321083  0.06943045  0.52625959    -0.12900
C2220       C  0.91370941  0.08809866  0.52791136     0.00600
C2221       C  0.94226560  0.06347289  0.43463246     0.39900
C2222       C  0.90660940  0.09840799  0.55979607     0.36500
C2223       C  0.85102512  0.08953352  0.52709622     0.36300
C2224       C  0.87771888  0.18687435  0.46802758     0.37000
N2225       N  0.95063173  0.05760387  0.40925424    -0.43800
N2226       N  0.90105282  0.10683705  0.58531258    -0.44200
N2227       N  0.88348792  0.20597118  0.45465053    -0.41600
N2228       N  0.84496139  0.06959351  0.53810816    -0.43000
H2229       H  0.82201282  0.13168541  0.52479645     0.13200
H2230       H  0.90719969  0.14557087  0.47357620     0.09600
H2231       H  0.90394560  0.09661283  0.44539621     0.10700
H2232       H  0.94177183  0.06215845  0.54881320     0.16500
C2233       C  0.60832143  0.09396782  0.52928601    -0.01700
C2234       C  0.61382669  0.10849914  0.50064355     0.06900
C2235       C  0.60041424  0.10332393  0.47142448    -0.07700
C2236       C  0.58163456  0.08383119  0.47041483     0.04300
C2237       C  0.57600529  0.06941063  0.49913636    -0.14900
C2238       C  0.58935454  0.07468523  0.52838499    -0.08200
C2239       C  0.63448169  0.12820309  0.50019388     0.05300
C2240       C  0.65681209  0.12273086  0.48229773    -0.09300
C2241       C  0.67717083  0.14048765  0.48183594     0.00300
C2242       C  0.67514953  0.16426367  0.49948392     0.00100
C2243       C  0.65258472  0.16979971  0.51695988    -0.12900
C2244       C  0.63233898  0.15201217  0.51749934     0.00600
C2245       C  0.69961165  0.13406415  0.46261817     0.39900
C2246       C  0.60957044  0.15876994  0.53579793     0.36500
C2247       C  0.62263801  0.09780365  0.55936490     0.36300
C2248       C  0.56910602  0.07835781  0.43945425     0.37000
N2249       N  0.71772773  0.12908840  0.44742753    -0.43800
N2250       N  0.59148513  0.16442841  0.55065156    -0.44200
N2251       N  0.55932407  0.07404176  0.41443215    -0.41600
N2252       N  0.63425235  0.10092964  0.58334321    -0.43000
H2253       H  0.58520471  0.06337499  0.55035716     0.13200
H2254       H  0.60491479  0.11430246  0.44929341     0.09600
H2255       H  0.65837010  0.10442584  0.46887335     0.10700
H2256       H  0.65084671  0.18798148  0.53062131     0.16500
C2257       C  0.66832156  0.38328584  0.49841619    -0.01700
C2258       C  0.64229694  0.37752037  0.50353841     0.06900
C2259       C  0.63459166  0.35161515  0.50830505    -0.07700
C2260       C  0.65243671  0.33133667  0.50875009     0.04300
C2261       C  0.67884441  0.33694567  0.50403794    -0.14900
C2262       C  0.68631707  0.36309011  0.49868756    -0.08200
C2263       C  0.62256829  0.39811149  0.50444800     0.05300
C2264       C  0.60387284  0.39842635  0.47967196    -0.09300
C2265       C  0.58390957  0.41653771  0.48071694     0.00300
C2266       C  0.58254991  0.43460225  0.50696484     0.00100
C2267       C  0.60133120  0.43442201  0.53161139    -0.12900
C2268       C  0.62123846  0.41623009  0.53065098     0.00600
C2269       C  0.56500792  0.41625536  0.45474328     0.39900
C2270       C  0.63951040  0.41590305  0.55735132     0.36500
C2271       C  0.67693667  0.40973777  0.49265586     0.36300
C2272       C  0.64271518  0.30525858  0.51453034     0.37000
N2273       N  0.54976373  0.41603250  0.43405322    -0.43800
N2274       N  0.65416092  0.41567286  0.57874007    -0.44200
N2275       N  0.63471459  0.28443399  0.51897048    -0.41600
N2276       N  0.68380969  0.43097448  0.48824776    -0.43000
H2277       H  0.70627896  0.36789417  0.49455468     0.13200
H2278       H  0.61447274  0.34729542  0.51219358     0.09600
H2279       H  0.60481688  0.38434957  0.45965918     0.10700
H2280       H  0.60013888  0.44825077  0.55187041     0.16500
C2281       C  0.89422806  0.34227135  0.52866902    -0.01700
C2282       C  0.89056314  0.36853512  0.51958881     0.06900
C2283       C  0.86673553  0.37666087  0.50773232    -0.07700
C2284       C  0.84664745  0.35887156  0.50397913     0.04300
C2285       C  0.85028994  0.33223489  0.51242096    -0.14900
C2286       C  0.87418082  0.32435526  0.52504009    -0.08200
C2287       C  0.91182473  0.38754116  0.51958153     0.05300
C2288       C  0.93090698  0.38498675  0.49549279    -0.09300
C2289       C  0.94985918  0.40408235  0.49200923     0.00300
C2290       C  0.95016477  0.42582410  0.51347688     0.00100
C2291       C  0.93137463  0.42802519  0.53809008    -0.12900
C2292       C  0.91210096  0.40919737  0.54108729     0.00600
C2293       C  0.96811082  0.40153531  0.46545977     0.39900
C2294       C  0.89269255  0.41253949  0.56610252     0.36500
C2295       C  0.91833912  0.33345867  0.54197072     0.36300
C2296       C  0.82299073  0.36848453  0.49015056     0.37000
N2297       N  0.98274548  0.39952883  0.44418275    -0.43800
N2298       N  0.87706675  0.41519858  0.58605962    -0.44200
N2299       N  0.80399561  0.37611723  0.47912298    -0.41600
N2300       N  0.93773895  0.32659153  0.55260927    -0.43000
H2301       H  0.87724230  0.30417431  0.53223863     0.13200
H2302       H  0.86408037  0.39690544  0.50049860     0.09600
H2303       H  0.93041248  0.36849399  0.47863032     0.10700
H2304       H  0.93157104  0.44474557  0.55459615     0.16500
C2305       C  0.62656999  0.24006723  0.38909595    -0.01700
C2306       C  0.62781990  0.24769336  0.35582632     0.06900
C2307       C  0.65148968  0.25561658  0.34275058    -0.07700
C2308       C  0.67368105  0.25650556  0.36249583     0.04300
C2309       C  0.67239708  0.24949905  0.39628409    -0.14900
C2310       C  0.64852721  0.24111788  0.40886334    -0.08200
C2311       C  0.60456175  0.24727478  0.33445965     0.05300
C2312       C  0.58683573  0.26773362  0.33660088    -0.09300
C2313       C  0.56422006  0.26756035  0.31779910     0.00300
C2314       C  0.55873984  0.24648985  0.29581575     0.00100
C2315       C  0.57686521  0.22593868  0.29422622    -0.12900
C2316       C  0.59936040  0.22622659  0.31315460     0.00600
C2317       C  0.54699371  0.28939825  0.32195667     0.39900
C2318       C  0.61674777  0.20437595  0.31066327     0.36500
C2319       C  0.60302261  0.23051424  0.40337858     0.36300
C2320       C  0.69721851  0.26509322  0.34738474     0.37000
N2321       N  0.53338007  0.30700645  0.32562325    -0.43800
N2322       N  0.63063356  0.18682941  0.30862902    -0.44200
N2323       N  0.71604305  0.27192508  0.33505090    -0.41600
N2324       N  0.58425114  0.22268511  0.41488683    -0.43000
H2325       H  0.64688302  0.23503792  0.43438140     0.13200
H2326       H  0.65258588  0.26125647  0.31701994     0.09600
H2327       H  0.59064389  0.28390052  0.35326328     0.10700
H2328       H  0.57407367  0.20923137  0.27849899     0.16500
C2329       C  0.92463387  0.22870010  0.31632308    -0.01700
C2330       C  0.91548909  0.25294752  0.32824678     0.06900
C2331       C  0.92961193  0.27574421  0.32177341    -0.07700
C2332       C  0.95258213  0.27466386  0.30395877     0.04300
C2333       C  0.96191998  0.25046505  0.29248130    -0.14900
C2334       C  0.94773407  0.22762665  0.29857740    -0.08200
C2335       C  0.89242061  0.25467000  0.34977985     0.05300
C2336       C  0.89574463  0.26192046  0.38274380    -0.09300
C2337       C  0.87511386  0.26235101  0.40472326     0.00300
C2338       C  0.85022501  0.25470157  0.39403395     0.00100
C2339       C  0.84674614  0.24885062  0.36035665    -0.12900
C2340       C  0.86755665  0.24897445  0.33828625     0.00600
C2341       C  0.88043131  0.27121885  0.43789730     0.39900
C2342       C  0.86310674  0.24356406  0.30383056     0.36500
C2343       C  0.91105577  0.20467587  0.32316767     0.36300
C2344       C  0.96657244  0.29856855  0.29814153     0.37000
N2345       N  0.88502118  0.27832123  0.46435818    -0.43800
N2346       N  0.85992359  0.23938056  0.27608205    -0.44200
N2347       N  0.97786490  0.31765630  0.29325680    -0.41600
N2348       N  0.89984521  0.18564475  0.32873554    -0.43000
H2349       H  0.95504481  0.20890717  0.29022260     0.13200
H2350       H  0.92281309  0.29439151  0.33106622     0.09600
H2351       H  0.91474445  0.26700721  0.39147196     0.10700
H2352       H  0.82788469  0.24369519  0.35130203     0.16500
C2353       C  0.75772051  0.38964123  0.39169981    -0.01700
C2354       C  0.75878026  0.38710319  0.35711722     0.06900
C2355       C  0.76329961  0.36224045  0.34349167    -0.00700
C2356       C  0.76559852  0.33993542  0.36365741     0.04300
C2357       C  0.76282563  0.34216777  0.39838247    -0.14900
C2358       C  0.75937131  0.36744042  0.41177168    -0.08200
C2359       C  0.75404595  0.40999472  0.33500187     0.05300
C2360       C  0.77342948  0.41899862  0.31378360    -0.09300
C2361       C  0.76933068  0.44050761  0.29273543     0.00300
C2362       C  0.74546972  0.45355306  0.29286475     0.00100
C2363       C  0.72624287  0.44448870  0.31431575    -0.12900
C2364       C  0.73016040  0.42285388  0.33479223     0.00600
C2365       C  0.78941899  0.44771566  0.27009421     0.39900
C2366       C  0.70894337  0.41356617  0.35441481     0.36500
C2367       C  0.75521201  0.41495850  0.40726024     0.36300
C2368       C  0.77141205  0.31529769  0.34792830     0.37000
N2369       N  0.80567868  0.45322998  0.25200587    -0.43800
N2370       N  0.69191788  0.40611092  0.37007056    -0.44200
N2371       N  0.77631016  0.29558878  0.33534304    -0.41600
N2372       N  0.75326889  0.43524152  0.41972743    -0.43000
H2373       H  0.75768509  0.37007082  0.43821047     0.13200
H2374       H  0.76469199  0.36019620  0.31692760     0.09600
H2375       H  0.79174070  0.40903965  0.31347027     0.10700
H2376       H  0.70777112  0.45414111  0.31471953     0.16500
C2377       C  0.74907927  0.09468559  0.29297547    -0.01700
C2378       C  0.75243913  0.09328467  0.32748613     0.06900
C2379       C  0.75262320  0.06844798  0.34254568    -0.07700
C2380       C  0.74932880  0.04544630  0.32390990     0.04300
C2381       C  0.74490254  0.04708393  0.28970104    -0.14900
C2382       C  0.74501782  0.07179540  0.27460277    -0.08200
C2383       C  0.75551287  0.11739523  0.34823980     0.05300
C2384       C  0.73637990  0.13680862  0.34787851    -0.09300
C2385       C  0.73811598  0.15908115  0.36819704     0.00300
C2386       C  0.75916463  0.16209144  0.38966575     0.00100
C2387       C  0.77839648  0.14296830  0.38969810    -0.12900
C2388       C  0.77690397  0.12097375  0.36908329     0.00600
C2389       C  0.71739093  0.17775261  0.36805429     0.39900
C2390       C  0.79779951  0.10254437  0.36956457     0.36500
C2391       C  0.75049102  0.11928315  0.27563910     0.36300
C2392       C  0.74987014  0.02050694  0.34052652     0.37000
N2393       N  0.70075680  0.19268207  0.36802534    -0.43800
N2394       N  0.81463954  0.08787197  0.37008143    -0.44200
N2395       N  0.74637285  0.49928695  0.35391488    -0.41600
N2396       N  0.75179538  0.13893981  0.26162241    -0.43000
H2397       H  0.74189478  0.07318650  0.24821787     0.13200
H2398       H  0.75510797  0.06703761  0.36902762     0.09600
H2399       H  0.71972012  0.13423727  0.33226595     0.10700
H2400       H  0.79461690  0.14514864  0.40617391     0.16500
O2401       O  0.76101559  0.70575220  0.40442070    -0.79800
O2402       O  0.75949217  0.70279161  0.59473442    -0.81400
O2403       O  0.80147351  0.67128341  0.50049913    -0.78400
O2404       O  0.71803326  0.67532182  0.49733481    -0.76800
O2405       O  0.68871360  0.70831194  0.49814974    -0.78600
O2406       O  0.83300534  0.70211976  0.50223021    -0.79500
O2407       O  0.75857687  0.67304666  0.55247060    -0.80800
O2408       O  0.76066190  0.67440873  0.44489902    -0.81100
Eu2409     Eu  0.76088365  0.69532891  0.49924968     2.39200
O2410       O  0.73593071  0.72186266  0.53409477    -0.88600
O2411       O  0.78785208  0.72110897  0.46584188    -0.92200
C2412       C  0.76032271  0.68170267  0.41447232     1.02500
C2413       C  0.75812084  0.67911500  0.58333981     1.02300
C2414       C  0.82520807  0.67819088  0.50150906     1.02200
C2415       C  0.69482118  0.68392806  0.49717952     1.00100
H2416       H  0.79713525  0.70856917  0.54823774     0.29800
O2417       O  0.78692087  0.72014059  0.53482333    -1.01000
H2418       H  0.72582075  0.71291851  0.45184856     0.29900
O2419       O  0.73687417  0.72327601  0.46550368    -1.03500
O2420       O  0.76250801  0.79142182  0.59622803    -0.80800
O2421       O  0.76408374  0.79420959  0.40678694    -0.80300
O2422       O  0.83469979  0.74502180  0.55526731    -0.78700
O2423       O  0.68943853  0.74962510  0.55319184    -0.82100
O2424       O  0.69048202  0.75015084  0.44694195    -0.79900
O2425       O  0.83630639  0.74621790  0.44890647    -0.78600
O2426       O  0.80736847  0.81978084  0.50613944    -0.80100
O2427       O  0.72383908  0.82365809  0.49970470    -0.82000
O2428       O  0.83717332  0.78736971  0.50553273    -0.78800
O2429       O  0.69239324  0.79278460  0.49912261    -0.81400
O2430       O  0.80493836  0.74582431  0.59653081    -0.77200
O2431       O  0.80747788  0.74884361  0.40670615    -0.77200
O2432       O  0.72000749  0.74996390  0.40537142    -0.76900
O2433       O  0.71853870  0.74779722  0.59523738    -0.80400
O2434       O  0.76470246  0.82253293  0.55573585    -0.79800
O2435       O  0.76617989  0.82327195  0.44950261    -0.78100
Eu2436     Eu  0.76196634  0.74713127  0.56977234     2.39800
Eu2437     Eu  0.76351380  0.74934235  0.43160795     2.39600
Eu2438     Eu  0.81376576  0.74582265  0.50161825     2.38400
Eu2439     Eu  0.71196044  0.74965980  0.50022034     2.39900
Eu2440     Eu  0.76473869  0.80032839  0.50223877     2.39800
O2441       O  0.73845685  0.77570738  0.46693322    -0.92500
O2442       O  0.78895127  0.77262371  0.53602850    -0.91400
C2443       C  0.76348679  0.81554238  0.58624003     1.02600
C2444       C  0.76522790  0.81787077  0.41845281     1.01400
C2445       C  0.82837580  0.74513439  0.58594737     1.00800
C2446       C  0.69530813  0.74886035  0.58407605     1.02800
C2447       C  0.69657446  0.74990310  0.41615694     1.01700
C2448       C  0.83073249  0.74797898  0.41805703     1.00500
C2449       C  0.83067561  0.81169047  0.50703570     1.00600
C2450       C  0.70013022  0.81666459  0.49855703     1.03200
H2451       H  0.80126726  0.78480162  0.45505703     0.30600
O2452       O  0.78994002  0.77396311  0.46757953    -1.04700
H2453       H  0.72693469  0.78611272  0.54875356     0.32600
O2454       O  0.73756831  0.77492372  0.53555343    -1.07200
N2455       N  0.97389554  0.49466559  0.50792792    -0.36300
N2456       N  0.51011711  0.53757685  0.50891708    -0.56800
N2457       N  0.55161682  0.50059469  0.51231123    -0.36300
N2458       N  0.51529039  0.95825735  0.51005343    -0.56800
C2459       C  0.95840123  0.51470344  0.49961302     0.27300
C2460       C  0.96124844  0.97309835  0.49930658     0.27300
C2461       C  0.56437309  0.52282645  0.50479455     0.27300
C2462       C  0.56801825  0.97962455  0.50279990     0.27300
C2463       C  0.98825688  0.55118624  0.51289646     0.35900
C2464       C  0.52942889  0.55427290  0.51569458     0.35900
C2465       C  0.99539583  0.94246361  0.51720682     0.35900
C2466       C  0.53669831  0.94462378  0.51704151     0.35900
C2467       C  0.93529992  0.50493108  0.48799144    -0.21600
C2468       C  0.93743336  0.97821933  0.48568357    -0.21600
C2469       C  0.58818164  0.51670080  0.49183164    -0.21600
C2470       C  0.59200076  0.98818583  0.49275787    -0.21600
C2471       C  0.99369868  0.57674107  0.52213919    -0.22600
C2472       C  0.51987675  0.57864643  0.52408920    -0.22600
C2473       C  0.00414799  0.91870466  0.52910881    -0.22600
C2474       C  0.53034994  0.91997566  0.52871608    -0.22600
C2475       C  0.96366058  0.54138847  0.50556740    -0.18000
C2476       C  0.96963489  0.94822097  0.50985547    -0.18000
C2477       C  0.56173277  0.95325439  0.50986235    -0.18000
C2478       C  0.55544607  0.54844872  0.51068751    -0.18000
H2479       H  0.91866642  0.51593265  0.48030546     0.14900
H2480       H  0.92250148  0.96425061  0.47991321     0.14900
H2481       H  0.60287300  0.53017073  0.48369618     0.14900
H2482       H  0.60889317  0.97645830  0.48835914     0.14900
H2483       H  0.98028826  0.59250373  0.52640308     0.13200
H2484       H  0.53065597  0.59613856  0.52996000     0.13200
H2485       H  0.99283472  0.90190648  0.53630944     0.13200
H2486       H  0.54321555  0.90435194  0.53561998     0.13200
H2487       H  0.99071021  0.49620703  0.52141879     0.26500
H2488       H  0.53470407  0.49929742  0.52575567     0.26500
O2489       O  0.98846237  0.95257257  0.90642755    -0.79800
O2490       O  0.98615808  0.95667265  0.09626881    -0.81400
O2491       O  0.53091440  0.92650190  0.00085170    -0.78400
O2492       O  0.94725656  0.92217394  0.00191516    -0.76800
O2493       O  0.91473502  0.95170870  0.00140544    -0.78600
O2494       O  0.56003456  0.95961843  0.99937691    -0.79500
O2495       O  0.98734428  0.92529945  0.05584946    -0.80800
O2496       O  0.98766266  0.92242897  0.94822864    -0.81100
Eu2497     Eu  0.98791679  0.94582536  0.00140447     2.39200
O2498       O  0.96103111  0.97147207  0.03491763    -0.88600
O2499       O  0.51281216  0.97242558  0.96672015    -0.92200
C2500       C  0.98818648  0.92878685  0.91741722     1.02500
C2501       C  0.98678785  0.93257238  0.08632317     1.02300
C2502       C  0.55410319  0.93511105  0.99964098     1.02200
C2503       C  0.92331504  0.92806117  0.00172316     1.00100
H2504       H  0.52337709  0.96366926  0.04888921     0.29800
O2505       O  0.51207810  0.97401680  0.03515138    -1.01000
H2506       H  0.95090161  0.95819755  0.95335336     0.29900
O2507       O  0.96104607  0.96992820  0.96653361    -1.03500
O2508       O  0.98422699  0.54321528  0.09544153    -0.80800
O2509       O  0.98474706  0.54197871  0.90624381    -0.80300
O2510       O  0.55795114  0.00219730  0.05385936    -0.78700
O2511       O  0.91273379  0.99643247  0.05394617    -0.82100
O2512       O  0.91319619  0.99353944  0.94573077    -0.79900
O2513       O  0.55852751  0.00301401  0.94703156    -0.78600
O2514       O  0.52349805  0.57451949  0.00228646    -0.80100
O2515       O  0.93898035  0.56949616  0.99916846    -0.82000
O2516       O  0.55572263  0.54438412  0.00325764    -0.78800
O2517       O  0.90983915  0.53632973  0.99967585    -0.81400
O2518       O  0.52831799  0.00181379  0.09526301    -0.77200
O2519       O  0.52867516  0.50011422  0.90655786    -0.77200
O2520       O  0.94308854  0.49705981  0.90636817    -0.76900
O2521       O  0.94232109  0.99908396  0.09540345    -0.80400
O2522       O  0.98027847  0.57356169  0.05420647    -0.79800
O2523       O  0.98125825  0.57311305  0.94677650    -0.78100
Eu2524     Eu  0.98518178  0.00007765  0.06880627     2.39800
Eu2525     Eu  0.98594747  0.99689794  0.93175238     2.39600
Eu2526     Eu  0.53640207  0.00102018  0.00037294     2.38400
Eu2527     Eu  0.93400041  0.99536540  0.99996196     2.39900
Eu2528     Eu  0.98239327  0.55103635  0.00086829     2.39800
O2529       O  0.95831363  0.52285258  0.96732206    -0.92500
O2530       O  0.50964101  0.52614430  0.03491122    -0.91400
C2531       C  0.98171740  0.56704715  0.08486968     1.02600
C2532       C  0.98287919  0.56597143  0.91625971     1.01400
C2533       C  0.55174455  0.00221312  0.08464831     1.00800
C2534       C  0.91898196  0.99798421  0.08470494     1.02800
C2535       C  0.91966698  0.49593236  0.91663078     1.01700
C2536       C  0.55199363  0.50266266  0.91689250     1.00500
C2537       C  0.54739288  0.56810069  0.00321214     1.00600
C2538       C  0.91576693  0.56078496  0.99882188     1.03200
H2539       H  0.52016230  0.53770065  0.95389300     0.30600
O2540       O  0.50983509  0.52610058  0.96721751    -1.04700
H2541       H  0.94692283  0.53394811  0.04860677     0.32600
O2542       O  0.95822345  0.52341360  0.03529887    -1.07200
N2543       N  0.69646081  0.75215128  0.97920919    -0.36300
N2544       N  0.73179140  0.70826677  0.97754104    -0.56800
N2545       N  0.77414056  0.74521011  0.97808149    -0.36300
N2546       N  0.73885336  0.78908393  0.97543001    -0.56800
C2547       C  0.67975872  0.73221264  0.97481266     0.27300
C2548       C  0.68358273  0.77469586  0.97401974     0.27300
C2549       C  0.78691235  0.72264112  0.97275065     0.27300
C2550       C  0.79056468  0.76498689  0.97165059     0.27300
C2551       C  0.70989732  0.69495206  0.98332801     0.35900
C2552       C  0.75118135  0.69127665  0.98266623     0.35900
C2553       C  0.71969241  0.80608344  0.98163966     0.35900
C2554       C  0.76084804  0.80234181  0.98062017     0.35900
C2555       C  0.65591099  0.74222220  0.96675489    -0.21600
C2556       C  0.65832518  0.76903898  0.96625484    -0.21600
C2557       C  0.81177986  0.72815288  0.96291947    -0.21600
C2558       C  0.81407449  0.75490739  0.96220995    -0.21600
C2559       C  0.71540330  0.66917747  0.99123017    -0.22600
C2560       C  0.74157541  0.66687188  0.99087609    -0.22600
C2561       C  0.72953941  0.83042631  0.98988096    -0.22600
C2562       C  0.75565790  0.82804041  0.98929308    -0.22600
C2563       C  0.68495125  0.70543622  0.98054921    -0.18000
C2564       C  0.69340133  0.80018473  0.97914045    -0.18000
C2565       C  0.78559625  0.79179354  0.97673999    -0.18000
C2566       C  0.77742352  0.69724664  0.97895157    -0.18000
H2567       H  0.63843525  0.73137201  0.96239520     0.14900
H2568       H  0.64306266  0.78281636  0.96147295     0.14900
H2569       H  0.82685872  0.71432524  0.95736343     0.14900
H2570       H  0.83124494  0.76571405  0.95604402     0.14900
H2571       H  0.70198143  0.65364606  0.99674891     0.13200
H2572       H  0.75229748  0.64924874  0.99605329     0.13200
H2573       H  0.71901649  0.84802238  0.99591955     0.13200
H2574       H  0.76925227  0.84342836  0.99481228     0.13200
H2575       H  0.71449890  0.75065246  0.98960240     0.26500
H2576       H  0.75657133  0.74697429  0.98974463     0.26500
C2577       C  0.53612625  0.74803034  0.27056283     0.86800
C2578       C  0.53217747  0.72513018  0.24595225    -0.53400
C2579       C  0.01006767  0.72646033  0.22792628     0.09700
C2580       C  0.99350790  0.75051552  0.23627665     0.20700
C2581       C  0.53368911  0.77259743  0.24900202    -0.54100
C2582       C  0.01163026  0.77405313  0.23090383     0.09800
C2583       C  0.01155798  0.74761306  0.29155010    -0.53700
C2584       C  0.98936902  0.74907875  0.27388503     0.10400
H2585       H  0.54476378  0.70853795  0.24311938     0.14900
H2586       H  0.97545206  0.75158375  0.22190286     0.00700
H2587       H  0.54817081  0.78784803  0.24855843     0.15200
H2588       H  0.01169573  0.74643747  0.31828909     0.15000
C2589       C  0.71142067  0.99969629  0.23007998     0.86800
C2590       C  0.71589624  0.97573604  0.25266965    -0.53400
C2591       C  0.73862025  0.97584466  0.26948707     0.09700
C2592       C  0.75519299  0.00023285  0.26193043     0.20700
C2593       C  0.71500661  0.52217487  0.25269229    -0.54100
C2594       C  0.73790022  0.52294754  0.26879192     0.09800
C2595       C  0.73512394  0.00001224  0.20766266    -0.53700
C2596       C  0.75805654  0.00000455  0.22395919     0.10400
H2597       H  0.70290365  0.95946233  0.25536142     0.14900
H2598       H  0.77364032  0.00089999  0.27544580     0.00700
H2599       H  0.70075722  0.53749162  0.25538193     0.15200
H2600       H  0.73376373  0.00033358  0.18094682     0.15000
C2601       C  0.53394603  0.74836979  0.72739608     0.86800
C2602       C  0.53173539  0.77043909  0.75331078    -0.53400
C2603       C  0.01001286  0.76963848  0.77196408     0.09700
C2604       C  0.99207501  0.74675371  0.76320017     0.20700
C2605       C  0.53051158  0.72297323  0.74705866    -0.54100
C2606       C  0.00868190  0.72184582  0.76565726     0.09800
C2607       C  0.00893004  0.75141290  0.70753805    -0.53700
C2608       C  0.98699658  0.75005741  0.72604272     0.10400
H2609       H  0.54495236  0.78671248  0.75539734     0.14900
H2610       H  0.97444765  0.74629240  0.77848131     0.00700
H2611       H  0.54440242  0.70719420  0.74637704     0.15200
H2612       H  0.00851898  0.75457968  0.68109343     0.15000
C2613       C  0.71404713  0.99756963  0.77698967     0.86800
C2614       C  0.71664734  0.52241635  0.75412295    -0.53400
C2615       C  0.73825688  0.52316580  0.73518607     0.09700
C2616       C  0.75482459  0.99722396  0.73909750     0.20700
C2617       C  0.71471598  0.97498694  0.75188546    -0.54100
C2618       C  0.73598156  0.97449949  0.73213236     0.09800
C2619       C  0.73973482  0.99481610  0.79583879    -0.53700
C2620       C  0.76099363  0.99469942  0.77605343     0.10400
H2621       H  0.70274990  0.53816598  0.75432272     0.14900
H2622       H  0.77207770  0.99700815  0.72309923     0.00700
H2623       H  0.70015763  0.95981847  0.75115652     0.15200
H2624       H  0.74173106  0.99343779  0.82230673     0.15000
C2625       C  0.61951493  0.99456230  0.11743510    -0.01700
C2626       C  0.61740623  0.00304039  0.15032070     0.06900
C2627       C  0.59371758  0.50960183  0.16237629    -0.07700
C2628       C  0.57178562  0.50927311  0.14226179     0.04300
C2629       C  0.57363604  0.00222241  0.10862695    -0.14900
C2630       C  0.59791626  0.99427487  0.09704211    -0.08200
C2631       C  0.64008715  0.00296047  0.17253134     0.05300
C2632       C  0.65755488  0.52091250  0.17054396    -0.09300
C2633       C  0.68023235  0.52079046  0.18914455     0.00300
C2634       C  0.68609535  0.00109463  0.21036470     0.00100
C2635       C  0.66748313  0.98103845  0.21230114    -0.12900
C2636       C  0.64487265  0.98186778  0.19378429     0.00600
C2637       C  0.69713923  0.54302829  0.18584878     0.39900
C2638       C  0.62704609  0.96036910  0.19641607     0.36500
C2639       C  0.64362174  0.98543022  0.10431005     0.36300
C2640       C  0.54828242  0.51955466  0.15571833     0.37000
N2641       N  0.71053353  0.56096767  0.18335378    -0.43800
N2642       N  0.61282867  0.94309095  0.19862672    -0.44200
N2643       N  0.52947398  0.52765798  0.16679866    -0.41600
N2644       N  0.66292329  0.97798864  0.09392059    -0.43000
H2645       H  0.60015965  0.98753189  0.07183915     0.13200
H2646       H  0.59255229  0.51739377  0.18722452     0.09600
H2647       H  0.65362072  0.53707763  0.15401462     0.10700
H2648       H  0.67002413  0.96423013  0.22783322     0.16500
C2649       C  0.82651962  0.51628972  0.19949837    -0.01700
C2650       C  0.83009292  0.00004294  0.17111392     0.06900
C2651       C  0.81075689  0.98230673  0.16249075    -0.07700
C2652       C  0.78755676  0.98157972  0.17976271     0.04300
C2653       C  0.78312034  0.99917121  0.20619160    -0.14900
C2654       C  0.80282542  0.51574307  0.21596216    -0.08200
C2655       C  0.85353726  0.00119428  0.15021792     0.05300
C2656       C  0.87665172  0.99051127  0.16166360    -0.09300
C2657       C  0.89843268  0.98941884  0.14120254     0.00300
C2658       C  0.89729500  0.99942240  0.10867589     0.00100
C2659       C  0.87652411  0.51285315  0.10224319    -0.12900
C2660       C  0.85492752  0.51370860  0.12256264     0.00600
C2661       C  0.92108514  0.97663015  0.15357542     0.39900
C2662       C  0.83267217  0.52788315  0.11141367     0.36500
C2663       C  0.84544844  0.53540433  0.20913780     0.36300
C2664       C  0.76901856  0.96196839  0.17036200     0.37000
N2665       N  0.93919788  0.96625878  0.16345826    -0.43800
N2666       N  0.81474219  0.53908234  0.10248566    -0.44200
N2667       N  0.75421325  0.94623961  0.16270338    -0.41600
N2668       N  0.86064567  0.55079823  0.21659695    -0.43000
H2669       H  0.79932797  0.52931185  0.23604614     0.13200
H2670       H  0.81380226  0.96902565  0.14196579     0.09600
H2671       H  0.87743308  0.98230233  0.18628364     0.10700
H2672       H  0.87618386  0.52328559  0.07899908     0.16500
C2673       C  0.47563985  0.86577087  0.12359530    -0.01700
C2674       C  0.99091768  0.86657121  0.15220013     0.06900
C2675       C  0.00392187  0.88981686  0.16019652    -0.07700
C2676       C  0.00213313  0.91202245  0.13991511     0.04300
C2677       C  0.98698160  0.91114853  0.11106290    -0.14900
C2678       C  0.47359763  0.88795869  0.10358803    -0.08200
C2679       C  0.99550949  0.84261777  0.17216165     0.05300
C2680       C  0.51915949  0.82988531  0.16910847    -0.09300
C2681       C  0.52441954  0.80703913  0.18689855     0.00300
C2682       C  0.00590400  0.79668215  0.20884133     0.00100
C2683       C  0.98189053  0.80891242  0.21091326    -0.12900
C2684       C  0.97663700  0.83178357  0.19298593     0.00600
C2685       C  0.54853679  0.79410337  0.18095373     0.39900
C2686       C  0.95202683  0.84416578  0.19700713     0.36500
C2687       C  0.46326800  0.84190759  0.11307599     0.36300
C2688       C  0.01757098  0.93461698  0.14786144     0.37000
N2689       N  0.56788115  0.78385648  0.17587631    -0.43800
N2690       N  0.93227804  0.85404104  0.20036337    -0.44200
N2691       N  0.03007373  0.95266418  0.15408196    -0.41600
N2692       N  0.45353899  0.82273895  0.10443969    -0.43000
H2693       H  0.46207961  0.88690133  0.08137244     0.13200
H2694       H  0.01616294  0.89030935  0.18178015     0.09600
H2695       H  0.53345578  0.83771713  0.15239938     0.10700
H2696       H  0.96740880  0.80100505  0.22723833     0.16500
C2697       C  0.00294594  0.61301288  0.15314553    -0.01700
C2698       C  0.98629585  0.63456272  0.14898897     0.06900
C2699       C  0.96632990  0.63246810  0.12597912    -0.07700
C2700       C  0.96363711  0.61000812  0.10618489     0.04300
C2701       C  0.98114986  0.58899473  0.10915453    -0.14900
C2702       C  0.00019423  0.59051624  0.13346757    -0.08200
C2703       C  0.99057905  0.65982139  0.16698336     0.05300
C2704       C  0.51343217  0.67361665  0.16137611    -0.09300
C2705       C  0.51960109  0.69601510  0.17978490     0.00300
C2706       C  0.00256527  0.70535004  0.20424525     0.00100
C2707       C  0.97895031  0.69260470  0.20831532    -0.12900
C2708       C  0.97293682  0.66991680  0.19016939     0.00600
C2709       C  0.54364255  0.70893970  0.17315280     0.39900
C2710       C  0.94923612  0.65654911  0.19721477     0.36500
C2711       C  0.02332151  0.61372519  0.17714960     0.36300
C2712       C  0.44256073  0.60888817  0.08321204     0.37000
N2713       N  0.56300457  0.71909131  0.16778403    -0.43800
N2714       N  0.93021816  0.64591456  0.20310138    -0.44200
N2715       N  0.42551620  0.60797684  0.06504049    -0.41600
N2716       N  0.03968186  0.61435961  0.19635498    -0.43000
H2717       H  0.01374888  0.57461756  0.13603535     0.13200
H2718       H  0.95324384  0.64872332  0.12281392     0.09600
H2719       H  0.52682315  0.66644578  0.14302711     0.10700
H2720       H  0.96570094  0.69959013  0.22690830     0.16500
C2721       C  0.64934967  0.85658636  0.95934667    -0.01700
C2722       C  0.63863292  0.86199513  0.99051943     0.06900
C2723       C  0.64672559  0.84781913  0.01816374    -0.07700
C2724       C  0.66495003  0.82795981  0.01490676     0.04300
C2725       C  0.67490928  0.82187186  0.98351329    -0.14900
C2726       C  0.66736263  0.83652526  0.95602422    -0.08200
C2727       C  0.61747830  0.88091034  0.99420599     0.05300
C2728       C  0.59241594  0.87134901  0.99402580    -0.09300
C2729       C  0.57148973  0.88834842  0.99541588     0.00300
C2730       C  0.57553807  0.91577474  0.99822641     0.00100
C2731       C  0.60099308  0.92511186  0.99874518    -0.12900
C2732       C  0.62181045  0.90799717  0.99622759     0.00600
C2733       C  0.54636731  0.87677937  0.99240255     0.39900
C2734       C  0.64740035  0.91863534  0.99472759     0.36500
C2735       C  0.64168887  0.87105199  0.93045615     0.36300
C2736       C  0.67329284  0.81407386  0.04395687     0.37000
N2737       N  0.52634924  0.86731271  0.98963332    -0.43800
N2738       N  0.66790153  0.92712960  0.99311349    -0.44200
N2739       N  0.68020129  0.80298522  0.06715612    -0.41600
N2740       N  0.63553222  0.88278235  0.90741136    -0.43000
H2741       H  0.67532843  0.83203470  0.93197648     0.13200
H2742       H  0.63855872  0.85209006  0.04216724     0.09600
H2743       H  0.58921327  0.85043816  0.99178911     0.10700
H2744       H  0.60480385  0.94591893  0.00049145     0.16500
C2745       C  0.84233476  0.82712834  0.01311142    -0.01700
C2746       C  0.84783253  0.84567542  0.98839037     0.06900
C2747       C  0.83395170  0.84524446  0.95875944    -0.07700
C2748       C  0.81392511  0.82749927  0.95417432     0.04300
C2749       C  0.80777060  0.80972031  0.97944243    -0.14900
C2750       C  0.82233542  0.80933564  0.00846211    -0.08200
C2751       C  0.86695395  0.86664371  0.99352856     0.05300
C2752       C  0.89269962  0.86006938  0.99806011    -0.09300
C2753       C  0.91133036  0.87949111  0.00205415     0.00300
C2754       C  0.90426855  0.90633129  0.00073940     0.00100
C2755       C  0.87818953  0.91263427  0.99695964    -0.12900
C2756       C  0.85963775  0.89313516  0.99364619     0.00600
C2757       C  0.93738182  0.87097195  0.00718063     0.39900
C2758       C  0.83307423  0.90071125  0.99105978     0.36500
C2759       C  0.85627679  0.82661424  0.04383911     0.36300
C2760       C  0.79965318  0.82813923  0.92371886     0.37000
N2761       N  0.95825834  0.86416887  0.01127926    -0.43800
N2762       N  0.81173584  0.90654006  0.98908933    -0.44200
N2763       N  0.78815968  0.82869597  0.89934700    -0.41600
N2764       N  0.86755689  0.82613385  0.06838232    -0.43000
H2765       H  0.81762384  0.79549694  0.02779225     0.13200
H2766       H  0.83842001  0.85924795  0.93952200     0.09600
H2767       H  0.89826980  0.83962909  0.99822078     0.10700
H2768       H  0.87210772  0.93289611  0.99629596     0.16500
C2769       C  0.88232701  0.62594815  0.98708028    -0.01700
C2770       C  0.85639487  0.61912953  0.99053638     0.06900
C2771       C  0.84969465  0.59323559  0.99738705    -0.07700
C2772       C  0.86844625  0.57392886  0.00093077     0.04300
C2773       C  0.89471109  0.58042636  0.99672322    -0.14900
C2774       C  0.90114580  0.60667469  0.98990252    -0.08200
C2775       C  0.83586871  0.63884220  0.98806000     0.05300
C2776       C  0.82123526  0.64009145  0.95914050    -0.09300
C2777       C  0.80152879  0.65843886  0.95606470     0.00300
C2778       C  0.79649072  0.67592086  0.98217081     0.00100
C2779       C  0.81090669  0.67437622  0.01128678    -0.12900
C2780       C  0.83037501  0.65581694  0.01450619     0.00600
C2781       C  0.78690238  0.65920962  0.92590878     0.39900
C2782       C  0.84416580  0.65405307  0.04527428     0.36500
C2783       C  0.89005962  0.65260797  0.98074756     0.36300
C2784       C  0.85979584  0.54804933  0.00984275     0.37000
N2785       N  0.77507605  0.65972092  0.90180205    -0.43800
N2786       N  0.85520689  0.65232623  0.06990438    -0.44200
N2787       N  0.85243830  0.52748887  0.01712109    -0.41600
N2788       N  0.89630539  0.67398420  0.97587853    -0.43000
H2789       H  0.92099015  0.61233334  0.98666677     0.13200
H2790       H  0.82966204  0.58820817  0.00056528     0.09600
H2791       H  0.82531107  0.62677853  0.93896084     0.10700
H2792       H  0.80696238  0.68778313  0.03141196     0.16500
C2793       C  0.63364195  0.65579948  0.95958987    -0.01700
C2794       C  0.62351167  0.64992348  0.99102790     0.06900
C2795       C  0.63317146  0.66294310  0.01884744    -0.07700
C2796       C  0.65265116  0.68160389  0.01573084     0.04300
C2797       C  0.66295640  0.68722195  0.98438406    -0.14900
C2798       C  0.65323405  0.67436493  0.95652171    -0.08200
C2799       C  0.60340879  0.62970510  0.99558189     0.05300
C2800       C  0.60952004  0.60669916  0.01262669    -0.09300
C2801       C  0.59146431  0.58663540  0.01636635     0.00300
C2802       C  0.56662743  0.58950090  0.00281394     0.00100
C2803       C  0.56033553  0.61305995  0.98692909    -0.12900
C2804       C  0.57841731  0.63304652  0.98326833     0.00600
C2805       C  0.59891724  0.56364560  0.03469604     0.39900
C2806       C  0.57083840  0.65687447  0.96693363     0.36500
C2807       C  0.62484669  0.64242344  0.93031950     0.36300
C2808       C  0.66202348  0.69453214  0.04501339     0.37000
N2809       N  0.60494868  0.54526340  0.04938753    -0.43800
N2810       N  0.56474343  0.67594986  0.95379280    -0.44200
N2811       N  0.66947056  0.70490357  0.06851721    -0.41600
N2812       N  0.61777312  0.63176767  0.90682389    -0.43000
H2813       H  0.66128362  0.67856619  0.93244825     0.13200
H2814       H  0.62548649  0.65845121  0.04303876     0.09600
H2815       H  0.62860998  0.60429362  0.02267306     0.10700
H2816       H  0.54139192  0.61568176  0.97653564     0.16500
C2817       C  0.85435919  0.00205291  0.87720497    -0.01700
C2818       C  0.85705073  0.99023966  0.84600169     0.06900
C2819       C  0.88018664  0.48814775  0.83708181    -0.07700
C2820       C  0.90153321  0.48890093  0.85827454     0.04300
C2821       C  0.89831699  0.49562540  0.89201963    -0.14900
C2822       C  0.87509449  0.00292353  0.89894110    -0.08200
C2823       C  0.83471296  0.98846103  0.82336990     0.05300
C2824       C  0.82843763  0.51278700  0.80410021    -0.09300
C2825       C  0.80535039  0.51416603  0.78638916     0.00300
C2826       C  0.78734890  0.99189804  0.78974102     0.00100
C2827       C  0.79259231  0.97068027  0.81067338    -0.12900
C2828       C  0.81606840  0.96875688  0.82725017     0.00600
C2829       C  0.80097253  0.53685193  0.76608019     0.39900
C2830       C  0.82037637  0.94684975  0.84896037     0.36500
C2831       C  0.83043452  0.01368016  0.88734937     0.36300
C2832       C  0.92621174  0.48201101  0.84478934     0.37000
N2833       N  0.79802889  0.55536298  0.75015620    -0.43800
N2834       N  0.82392953  0.92923356  0.86624344    -0.44200
N2835       N  0.94602245  0.47652936  0.83403831    -0.41600
N2836       N  0.81129746  0.02311312  0.89538278    -0.43000
H2837       H  0.87252352  0.01208889  0.92286146     0.13200
H2838       H  0.88268662  0.48271618  0.81141995     0.09600
H2839       H  0.84241515  0.52838267  0.80178383     0.10700
H2840       H  0.77803978  0.95587103  0.81466582     0.16500
C2841       C  0.60152434  0.98009625  0.85383763    -0.01700
C2842       C  0.61770073  0.00217294  0.85238956     0.06900
C2843       C  0.61173974  0.52412205  0.87014891    -0.07700
C2844       C  0.59019828  0.52520994  0.89088910     0.04300
C2845       C  0.57290953  0.50393171  0.89208053    -0.14900
C2846       C  0.57943035  0.98060898  0.87355938    -0.08200
C2847       C  0.64231263  0.00142930  0.83389171     0.05300
C2848       C  0.64100623  0.50357312  0.79706895    -0.09300
C2849       C  0.66387707  0.50229616  0.77879902     0.00300
C2850       C  0.68885019  0.99844141  0.79714801     0.00100
C2851       C  0.68852809  0.99512369  0.83180179    -0.12900
C2852       C  0.66568115  0.99671435  0.84999182     0.00600
C2853       C  0.66209421  0.50663364  0.74369137     0.39900
C2854       C  0.66646022  0.99300476  0.88528936     0.36500
C2855       C  0.60791616  0.95640607  0.83627804     0.36300
C2856       C  0.58597982  0.54856417  0.91024111     0.37000
N2857       N  0.66066143  0.51069591  0.71568822    -0.43800
N2858       N  0.66676644  0.99006475  0.91357673    -0.44200
N2859       N  0.58258434  0.56745177  0.92539558    -0.41600
N2860       N  0.61329268  0.93753135  0.82210072    -0.43000
H2861       H  0.56758758  0.96323724  0.87550361     0.13200
H2862       H  0.62520518  0.54028403  0.86989620     0.09600
H2863       H  0.62305469  0.50734662  0.78453720     0.10700
H2864       H  0.70577653  0.99105067  0.84535136     0.16500
C2865       C  0.98914187  0.68003585  0.83913988    -0.01700
C2866       C  0.99175552  0.65432067  0.82657765     0.06900
C2867       C  0.49791108  0.65111782  0.79309287    -0.07700
C2868       C  0.50272149  0.67275579  0.77276026     0.04300
C2869       C  0.00177266  0.69841964  0.78585894    -0.14900
C2870       C  0.99424820  0.70173745  0.81885092    -0.08200
C2871       C  0.98897900  0.63058102  0.84802164     0.05300
C2872       C  0.96577813  0.62578459  0.86455135    -0.09300
C2873       C  0.96305116  0.60431301  0.88593372     0.00300
C2874       C  0.98378038  0.58710812  0.89116515     0.00100
C2875       C  0.50662722  0.59123189  0.87367646    -0.12900
C2876       C  0.50936549  0.61264211  0.85226263     0.00600
C2877       C  0.93853151  0.59982000  0.90131619     0.39900
C2878       C  0.53357987  0.61625178  0.83569927     0.36500
C2879       C  0.98185877  0.68468064  0.87297632     0.36300
C2880       C  0.50731571  0.66807548  0.73815096     0.37000
N2881       N  0.91869179  0.59615860  0.91313630    -0.43800
N2882       N  0.55288550  0.61914018  0.82218230    -0.44200
N2883       N  0.51078007  0.66422140  0.71038523    -0.41600
N2884       N  0.97577509  0.68839230  0.90002369    -0.43000
H2885       H  0.99295056  0.72132050  0.82904723     0.13200
H2886       H  0.49899400  0.63155383  0.78279359     0.09600
H2887       H  0.94974072  0.63887946  0.86074376     0.10700
H2888       H  0.52265530  0.57811180  0.87751814     0.16500
C2889       C  0.51200130  0.88129413  0.85227217    -0.01700
C2890       C  0.99258280  0.86198241  0.85229603     0.06900
C2891       C  0.97082373  0.86591732  0.87198817    -0.07700
C2892       C  0.96865710  0.88808248  0.89231338     0.04300
C2893       C  0.98849132  0.90689365  0.89324911    -0.14900
C2894       C  0.50977400  0.90355874  0.87249909    -0.08200
C2895       C  0.99525429  0.83715453  0.83300698     0.05300
C2896       C  0.51543335  0.82009930  0.84059818    -0.09300
C2897       C  0.51976636  0.79742365  0.82193196     0.00300
C2898       C  0.00355770  0.79117316  0.79528365     0.00100
C2899       C  0.98263192  0.80753825  0.78850003    -0.12900
C2900       C  0.97846084  0.83047665  0.80698201     0.00600
C2901       C  0.54110077  0.78084610  0.83044801     0.39900
C2902       C  0.95774155  0.84759838  0.79768078     0.36500
C2903       C  0.53446468  0.87847819  0.83182547     0.36300
C2904       C  0.94556960  0.89143588  0.91137511     0.37000
N2905       N  0.55818066  0.76749722  0.83717768    -0.43800
N2906       N  0.94120528  0.86143203  0.79026672    -0.44200
N2907       N  0.92684526  0.89416348  0.92620648    -0.41600
N2908       N  0.55241443  0.87593562  0.81540705    -0.43000
H2909       H  0.52506920  0.91791902  0.87292122     0.13200
H2910       H  0.95569596  0.85137203  0.87194660     0.09600
H2911       H  0.52815832  0.82479277  0.86089106     0.10700
H2912       H  0.97026267  0.80305027  0.76776773     0.16500
C2913       C  0.86675216  0.75960944  0.66375163    -0.01700
C2914       C  0.89156052  0.75183974  0.65434985     0.06900
C2915       C  0.89527565  0.74021329  0.62352908    -0.07700
C2916       C  0.87494944  0.73679577  0.60156772     0.04300
C2917       C  0.84991823  0.74535056  0.61022592    -0.14900
C2918       C  0.84615325  0.75623384  0.64181623    -0.08200
C2919       C  0.91411958  0.75459098  0.67630894     0.05300
C2920       C  0.91766645  0.73619539  0.70142288    -0.09300
C2921       C  0.94088531  0.73473105  0.71863411     0.00300
C2922       C  0.96099644  0.75233938  0.71112248     0.00100
C2923       C  0.95678182  0.77167220  0.68710428    -0.12900
C2924       C  0.93375189  0.77273070  0.66949439     0.00600
C2925       C  0.94394068  0.71350306  0.74166028     0.39900
C2926       C  0.93106324  0.79195411  0.64368505     0.36500
C2927       C  0.86230896  0.77207365  0.69517661     0.36300
C2928       C  0.88075063  0.72418711  0.57054229     0.37000
N2929       N  0.94563071  0.69617575  0.75984137    -0.43800
N2930       N  0.92906375  0.80732249  0.62292625    -0.44200
N2931       N  0.88584415  0.71415332  0.54580057    -0.41600
N2932       N  0.85891230  0.78222307  0.72032592    -0.43000
H2933       H  0.82729998  0.76300240  0.64900092     0.13200
H2934       H  0.91431729  0.73375426  0.61658715     0.09600
H2935       H  0.90274472  0.72192748  0.70625662     0.10700
H2936       H  0.97184169  0.78555969  0.68137734     0.16500
C2937       C  0.60390701  0.76146153  0.69986485    -0.01700
C2938       C  0.60518818  0.74896503  0.66897370     0.06900
C2939       C  0.58377399  0.73492693  0.65789547    -0.07700
C2940       C  0.56111317  0.73377110  0.67660063     0.04300
C2941       C  0.55883029  0.74819636  0.70654505    -0.14900
C2942       C  0.58112631  0.76093137  0.71824095    -0.08200
C2943       C  0.62875888  0.74998212  0.64805883     0.05300
C2944       C  0.65095369  0.73661397  0.65802557    -0.09300
C2945       C  0.67311037  0.73636102  0.63821596     0.00300
C2946       C  0.67332844  0.74974346  0.60768347     0.00100
C2947       C  0.65120529  0.76356307  0.59826934    -0.12900
C2948       C  0.62919019  0.76382212  0.61801908     0.00600
C2949       C  0.69473990  0.72108017  0.64902172     0.39900
C2950       C  0.60741022  0.77883481  0.60707045     0.36500
C2951       C  0.62577014  0.77512930  0.71321684     0.36300
C2952       C  0.54092236  0.71701018  0.66452117     0.37000
N2953       N  0.71202839  0.70873638  0.65766851    -0.43800
N2954       N  0.59012221  0.79101959  0.59808259    -0.44200
N2955       N  0.02482349  0.70357896  0.65449630    -0.41600
N2956       N  0.64332250  0.78600061  0.72398122    -0.43000
H2957       H  0.58139983  0.77004066  0.74228485     0.13200
H2958       H  0.58493607  0.72443697  0.63466400     0.09600
H2959       H  0.65077104  0.72588888  0.68107475     0.10700
H2960       H  0.65104732  0.77428072  0.57520203     0.16500
C2961       C  0.76844473  0.63678332  0.65927719    -0.01700
C2962       C  0.75516070  0.61357570  0.65073933     0.06900
C2963       C  0.74182036  0.61276617  0.62078671    -0.07700
C2964       C  0.74217814  0.63391727  0.59899433     0.04300
C2965       C  0.75598384  0.65695097  0.60699606    -0.14900
C2966       C  0.76866594  0.65818686  0.63752478    -0.08200
C2967       C  0.75357168  0.59034935  0.67307754     0.05300
C2968       C  0.74461681  0.59377369  0.70537170    -0.09300
C2969       C  0.74091142  0.57240536  0.72634997     0.00300
C2970       C  0.74487828  0.54654566  0.71467995     0.00100
C2971       C  0.75465240  0.54309835  0.68269652    -0.12900
C2972       C  0.75925022  0.56468999  0.66205288     0.00600
C2973       C  0.73404907  0.57780791  0.76018822     0.39900
C2974       C  0.77006807  0.56010758  0.62977021     0.36500
C2975       C  0.78249597  0.63893785  0.68980250     0.36300
C2976       C  0.72733629  0.63151543  0.56912784     0.37000
N2977       N  0.72856781  0.58201495  0.78733513    -0.43800
N2978       N  0.77876381  0.55667356  0.60386878    -0.44200
N2979       N  0.71534415  0.62925235  0.54532878    -0.41600
N2980       N  0.79360087  0.64069383  0.71439292    -0.43000
H2981       H  0.77932155  0.67565580  0.64407879     0.13200
H2982       H  0.73073546  0.59550528  0.61450329     0.09600
H2983       H  0.74020574  0.61328063  0.71423705     0.10700
H2984       H  0.75825200  0.52349953  0.67355362     0.16500
C2985       C  0.77440863  0.88232290  0.62538746    -0.01700
C2986       C  0.75758712  0.88186885  0.65259788     0.06900
C2987       C  0.74360024  0.85891348  0.65892529    -0.07700
C2988       C  0.74583703  0.83679666  0.63839478     0.04300
C2989       C  0.76258517  0.83723770  0.61098897    -0.14900
C2990       C  0.77684863  0.86017949  0.60503618    -0.08200
C2991       C  0.75266659  0.90582690  0.67288851     0.05300
C2992       C  0.72932126  0.91901354  0.66906906    -0.09300
C2993       C  0.72378065  0.94169888  0.68731625     0.00300
C2994       C  0.74186061  0.95180744  0.70997541     0.00100
C2995       C  0.76541456  0.93879584  0.71342028    -0.12900
C2996       C  0.77081204  0.91589417  0.69539564     0.00600
C2997       C  0.69955650  0.95445739  0.68176887     0.39900
C2998       C  0.79463530  0.90245877  0.70135602     0.36500
C2999       C  0.78823964  0.90582907  0.61682964     0.36300
C3000       C  0.72903474  0.81484917  0.64424795     0.37000
N3001       N  0.68005230  0.96449143  0.67716465    -0.43800
N3002       N  0.81367477  0.89161753  0.70631683    -0.44200
N3003       N  0.71538564  0.79734631  0.64860814    -0.41600
N3004       N  0.79916118  0.92477423  0.61001281    -0.43000
H3005       H  0.78948925  0.86107096  0.58383680     0.13200
H3006       H  0.73023120  0.85859195  0.67938407     0.09600
H3007       H  0.71536561  0.91155689  0.65161937     0.10700
H3008       H  0.77929873  0.94600427  0.73112099     0.16500
C3009       C  0.85685768  0.61250914  0.51668357    -0.01700
C3010       C  0.88181261  0.61692470  0.50461924     0.06900
C3011       C  0.88796122  0.64126040  0.49096438    -0.07700
C3012       C  0.86987670  0.66129948  0.48944420     0.04300
C3013       C  0.84490961  0.65725895  0.50208871    -0.14900
C3014       C  0.83870788  0.63265744  0.51550352    -0.08200
C3015       C  0.90190194  0.59650052  0.50525842     0.05300
C3016       C  0.91282772  0.58837293  0.47526401    -0.09300
C3017       C  0.93292339  0.57034167  0.47480837     0.00300
C3018       C  0.94210726  0.56005743  0.50471007     0.00100
C3019       C  0.93119051  0.56798145  0.53461595    -0.12900
C3020       C  0.91142367  0.58632445  0.53517885     0.00600
C3021       C  0.94403552  0.56273626  0.44361407     0.39900
C3022       C  0.90203890  0.59512345  0.56678192     0.36500
C3023       C  0.84931658  0.58733527  0.52962602     0.36300
C3024       C  0.87741218  0.68541013  0.47367250     0.37000
N3025       N  0.95304678  0.55644790  0.41876287    -0.43800
N3026       N  0.89456137  0.60201574  0.59221140    -0.44200
N3027       N  0.88349767  0.70473637  0.46108770    -0.41600
N3028       N  0.84343888  0.56714880  0.54008716    -0.43000
H3029       H  0.81967089  0.62914579  0.52521130     0.13200
H3030       H  0.90706964  0.64458580  0.48133830     0.09600
H3031       H  0.90578587  0.59635729  0.45222913     0.10700
H3032       H  0.93857901  0.56020627  0.55759079     0.16500
C3033       C  0.60897798  0.59468744  0.53399581    -0.01700
C3034       C  0.61188423  0.60932046  0.50478781     0.06900
C3035       C  0.59532370  0.60491735  0.47819968    -0.07700
C3036       C  0.57630499  0.58570233  0.48011335     0.04300
C3037       C  0.57403771  0.57034304  0.50882036    -0.14900
C3038       C  0.59025119  0.57513491  0.53569812    -0.08200
C3039       C  0.63248741  0.62892938  0.50129609     0.05300
C3040       C  0.65540925  0.62163590  0.48587205    -0.09300
C3041       C  0.67579110  0.63934952  0.48321722     0.00300
C3042       C  0.67345083  0.66476291  0.49684618     0.00100
C3043       C  0.64998685  0.67216044  0.51116093    -0.12900
C3044       C  0.62958672  0.65455854  0.51331129     0.00600
C3045       C  0.69844560  0.63113547  0.46558915     0.39900
C3046       C  0.60584111  0.66321214  0.52789132     0.36500
C3047       C  0.62509807  0.59934676  0.56231954     0.36300
C3048       C  0.55960073  0.58172276  0.45221042     0.37000
N3049       N  0.71655792  0.62459056  0.45136588    -0.43800
N3050       N  0.58679497  0.67025914  0.53943083    -0.44200
N3051       N  0.54610825  0.57857683  0.42993269    -0.41600
N3052       N  0.63792609  0.60321445  0.58507131    -0.43000
H3053       H  0.58834133  0.56346642  0.55787747     0.13200
H3054       H  0.59740608  0.61639800  0.45588887     0.09600
H3055       H  0.65736038  0.60201420  0.47595798     0.10700
H3056       H  0.64763736  0.69165430  0.52131164     0.16500
C3057       C  0.66824993  0.88253233  0.50928782    -0.01700
C3058       C  0.64285269  0.87701063  0.49992612     0.06900
C3059       C  0.63663241  0.85218873  0.48777948    -0.07700
C3060       C  0.65500597  0.83241596  0.48622669     0.04300
C3061       C  0.68036342  0.83743998  0.49710058    -0.14900
C3062       C  0.68674893  0.86282776  0.50776546    -0.08200
C3063       C  0.62223066  0.89662176  0.50302639     0.05300
C3064       C  0.61039906  0.90585194  0.47434136    -0.09300
C3065       C  0.59031865  0.92380918  0.47623779     0.00300
C3066       C  0.58227074  0.93328995  0.50725748     0.00100
C3067       C  0.59378895  0.92368769  0.53602424    -0.12900
C3068       C  0.61336474  0.90506881  0.53412703     0.00600
C3069       C  0.57798456  0.93189059  0.44608766     0.39900
C3070       C  0.62335262  0.89401460  0.56423359     0.36500
C3071       C  0.67572556  0.90819908  0.52069141     0.36300
C3072       C  0.64706382  0.80737280  0.47314189     0.37000
N3073       N  0.56811322  0.93810618  0.42180055    -0.43800
N3074       N  0.63134136  0.88487387  0.58819709    -0.44200
N3075       N  0.64059874  0.78731874  0.46277588    -0.41600
N3076       N  0.68176335  0.92872238  0.52995012    -0.43000
H3077       H  0.70608625  0.86721376  0.51576725     0.13200
H3078       H  0.61714738  0.84812809  0.48004827     0.09600
H3079       H  0.61675754  0.89881704  0.45045251     0.10700
H3080       H  0.58717165  0.93045752  0.55990474     0.16500
C3081       C  0.89640990  0.84125234  0.52189672    -0.01700
C3082       C  0.89207711  0.86794126  0.51561237     0.06900
C3083       C  0.86745191  0.87642484  0.50748515    -0.07700
C3084       C  0.84713793  0.85874436  0.50489121     0.04300
C3085       C  0.85140037  0.83162215  0.51022260    -0.14900
C3086       C  0.87619169  0.82337326  0.51913506    -0.08200
C3087       C  0.91301749  0.88743022  0.51602033     0.05300
C3088       C  0.93090905  0.88724413  0.49022794    -0.09300
C3089       C  0.94947800  0.90687998  0.48784443     0.00300
C3090       C  0.95051776  0.92679869  0.51188259     0.00100
C3091       C  0.93283590  0.92682302  0.53790258    -0.12900
C3092       C  0.91401123  0.90741030  0.54000810     0.00600
C3093       C  0.96668904  0.90686449  0.45997974     0.39900
C3094       C  0.89573394  0.90846972  0.56669254     0.36500
C3095       C  0.92127895  0.83191248  0.53193808     0.36300
C3096       C  0.82240490  0.86933628  0.49629285     0.37000
N3097       N  0.98050497  0.90706725  0.43767128    -0.43800
N3098       N  0.88097231  0.90931340  0.58795000    -0.44200
N3099       N  0.80260944  0.87796016  0.48959679    -0.41600
N3100       N  0.94116338  0.82442535  0.54017390    -0.43000
H3101       H  0.87985717  0.80290830  0.52425548     0.13200
H3102       H  0.86418086  0.89703978  0.50273304     0.09600
H3103       H  0.92982949  0.87218433  0.47140218     0.10700
H3104       H  0.93358443  0.94223276  0.55629760     0.16500
C3105       C  0.62857729  0.73981997  0.38497369    -0.01700
C3106       C  0.62978255  0.74868202  0.35218037     0.06900
C3107       C  0.65350920  0.75691101  0.33948850    -0.07700
C3108       C  0.67573142  0.75701466  0.35922147     0.04300
C3109       C  0.67440943  0.74893757  0.39257862    -0.14900
C3110       C  0.65058471  0.74002456  0.40466761    -0.08200
C3111       C  0.60656854  0.74869446  0.33066821     0.05300
C3112       C  0.58793866  0.76813973  0.33469660    -0.09300
C3113       C  0.56549055  0.76823276  0.31552870     0.00300
C3114       C  0.56091650  0.74825280  0.29166326     0.00100
C3115       C  0.58010300  0.72894945  0.28781984    -0.12900
C3116       C  0.60249115  0.72904677  0.30696016     0.00600
C3117       C  0.54753271  0.78925996  0.32106417     0.39900
C3118       C  0.62093707  0.70836452  0.30226459     0.36500
C3119       C  0.60505266  0.72983485  0.39883899     0.36300
C3120       C  0.69937682  0.76587722  0.34465384     0.37000
N3121       N  0.53326308  0.80617930  0.32565157    -0.43800
N3122       N  0.63572160  0.69178184  0.29856875    -0.44200
N3123       N  0.71836559  0.77286960  0.33289378    -0.41600
N3124       N  0.58632319  0.72167362  0.41009214    -0.43000
H3125       H  0.64900334  0.73299884  0.42980634     0.13200
H3126       H  0.65462880  0.76337777  0.31407437     0.09600
H3127       H  0.59096401  0.78334769  0.35297847     0.10700
H3128       H  0.57830452  0.71350455  0.26993154     0.16500
C3129       C  0.92781028  0.72580906  0.31429361    -0.01700
C3130       C  0.91777054  0.74932703  0.32732895     0.06900
C3131       C  0.93093193  0.77282963  0.32137368    -0.07700
C3132       C  0.95374897  0.77316650  0.30308749     0.04300
C3133       C  0.96387670  0.74968462  0.29028752    -0.14900
C3134       C  0.95065353  0.72616719  0.29589156    -0.08200
C3135       C  0.89491442  0.74962944  0.34957669     0.05300
C3136       C  0.89829304  0.75716114  0.38248203    -0.09300
C3137       C  0.87780012  0.75732478  0.40478579     0.00300
C3138       C  0.85291258  0.74931966  0.39450495     0.00100
C3139       C  0.84947760  0.74251402  0.36111724    -0.12900
C3140       C  0.87009725  0.74287380  0.33871950     0.00600
C3141       C  0.88318342  0.76653646  0.43778090     0.39900
C3142       C  0.86520760  0.73727910  0.30442232     0.36500
C3143       C  0.91565791  0.70098807  0.32094377     0.36300
C3144       C  0.96679823  0.79778735  0.29851011     0.37000
N3145       N  0.88781588  0.77386740  0.46412892    -0.43800
N3146       N  0.86135388  0.73305618  0.27682652    -0.44200
N3147       N  0.97716697  0.81758786  0.29486814    -0.41600
N3148       N  0.90573374  0.68120894  0.32639674    -0.43000
H3149       H  0.95862591  0.70795504  0.28681495     0.13200
H3150       H  0.92355983  0.79094186  0.33158275     0.09600
H3151       H  0.91720076  0.76294479  0.39084457     0.10700
H3152       H  0.83065952  0.73683538  0.35240912     0.16500
C3153       C  0.75888725  0.88870665  0.39036472    -0.01700
C3154       C  0.75984786  0.88683971  0.35573117     0.06900
C3155       C  0.76470935  0.86227511  0.34138705    -0.00700
C3156       C  0.76739396  0.83959859  0.36089005     0.04300
C3157       C  0.76465679  0.84113163  0.39565741    -0.14900
C3158       C  0.76094384  0.86616232  0.40974149    -0.08200
C3159       C  0.75476504  0.91009486  0.33428618     0.05300
C3160       C  0.77428853  0.92034963  0.31425623    -0.09300
C3161       C  0.76985600  0.94200381  0.29353173     0.00300
C3162       C  0.74544714  0.95402639  0.29275235     0.00100
C3163       C  0.72608868  0.94374459  0.31317876    -0.12900
C3164       C  0.73041084  0.92197116  0.33338723     0.00600
C3165       C  0.79033897  0.95034542  0.27214522     0.39900
C3166       C  0.70918075  0.91152656  0.35203155     0.36500
C3167       C  0.75620962  0.91366090  0.40677769     0.36300
C3168       C  0.77369430  0.81539492  0.34445782     0.37000
N3169       N  0.80700693  0.95670941  0.25514988    -0.43800
N3170       N  0.69211973  0.90313631  0.36685033    -0.44200
N3171       N  0.77905118  0.79614064  0.33109179    -0.41600
N3172       N  0.75424969  0.93356794  0.42017196    -0.43000
H3173       H  0.75938482  0.86837448  0.43625640     0.13200
H3174       H  0.76611598  0.86076043  0.31477111     0.09600
H3175       H  0.79300343  0.91120491  0.31455580     0.10700
H3176       H  0.70723356  0.95258087  0.31309508     0.16500
C3177       C  0.75113229  0.59323488  0.29282562    -0.01700
C3178       C  0.75276614  0.59173742  0.32753888     0.06900
C3179       C  0.75133796  0.56697130  0.34260646    -0.07700
C3180       C  0.74805585  0.54411709  0.32378186     0.04300
C3181       C  0.74516942  0.54587959  0.28932711    -0.14900
C3182       C  0.74698139  0.57049371  0.27417072    -0.08200
C3183       C  0.75567391  0.61569202  0.34850904     0.05300
C3184       C  0.73721675  0.63572655  0.34673943    -0.09300
C3185       C  0.73877179  0.65793199  0.36717169     0.00300
C3186       C  0.75915012  0.66039645  0.38977755     0.00100
C3187       C  0.77758768  0.64053573  0.39142093    -0.12900
C3188       C  0.77610302  0.61843410  0.37106695     0.00600
C3189       C  0.71834759  0.67693714  0.36623562     0.39900
C3190       C  0.79590514  0.59890836  0.37385410     0.36500
C3191       C  0.75435137  0.61776830  0.27572631     0.36300
C3192       C  0.74699812  0.51921443  0.34043978     0.37000
N3193       N  0.70188417  0.69205821  0.36574457    -0.43800
N3194       N  0.81178427  0.58328110  0.37636015    -0.44200
N3195       N  0.75053100  0.00052701  0.35387768    -0.41600
N3196       N  0.75711393  0.63742261  0.26205096    -0.43000
H3197       H  0.74508413  0.57191968  0.24759474     0.13200
H3198       H  0.75252140  0.56550864  0.36923452     0.09600
H3199       H  0.72114779  0.63364472  0.33002202     0.10700
H3200       H  0.79313677  0.64219345  0.40903120     0.16500
loop_ 
_geom_bond_atom_site_label_1 
_geom_bond_atom_site_label_2 
_geom_bond_distance 
_geom_bond_site_symmetry_2 
_ccdc_geom_bond_type 
O1           C12   1.296       .  A
O1          Eu37   2.489       .  S
O2           C13   1.297       .  A
O2          Eu36   2.489       .  S
O3           C14   1.290       .  A
O3           Eu9   2.454       .  S
O4           C15   1.288       .  A
O4           Eu9   2.444       .  S
O5           C15   1.286       .  A
O5          Eu39   2.429       .  S
O6           C14   1.288       .  A
O6          Eu38   2.445       .  S
O7           C13   1.291       .  A
O7           Eu9   2.452       .  S
O8           C12   1.291       .  A
O8           Eu9   2.454       .  S
Eu9          O19   2.350       .  S
Eu9          O11   2.353       .  S
Eu9          O10   2.352       .  S
Eu9          O17   2.348       .  S
O10         Eu39   2.342       .  S
O10         Eu36   2.360       .  S
O11         Eu37   2.375       .  S
O11         Eu38   2.348       .  S
C12         C786   1.482       .  S
C13         C565   1.490       .  S
C14         C613   1.484       .  S
C15         C642   1.473       .  S
H16          O17   0.966       .  S
O17         Eu38   2.348       .  S
O17         Eu36   2.371       .  S
H18          O19   0.959       .  S
O19         Eu37   2.362       .  S
O19         Eu39   2.345       .  S
O20          C43   1.298       .  A
O20         Eu36   2.499       .  S
O21          C44   1.297       .  A
O21         Eu37   2.494       .  S
O22          C45   1.288       .  A
O22         Eu38   2.440       .  S
O23          C46   1.290       .  A
O23         Eu39   2.446       .  S
O24          C47   1.289       .  A
O24         Eu39   2.439       .  S
O25          C48   1.288       .  A
O25         Eu38   2.440       .  S
O26          C49   1.288       .  A
O26         Eu40   2.444       .  S
O27          C50   1.290       .  A
O27         Eu40   2.451       .  S
O28          C49   1.288       .  A
O28         Eu38   2.440       .  S
O29          C50   1.285       .  A
O29         Eu39   2.429       .  S
O30          C45   1.297       .  A
O30         Eu36   2.489       .  S
O31          C48   1.299       .  A
O31         Eu37   2.499       .  S
O32          C47   1.299       .  A
O32         Eu37   2.509       .  S
O33          C46   1.297       .  A
O33         Eu36   2.498       .  S
O34          C43   1.289       .  A
O34         Eu40   2.445       .  S
O35          C44   1.291       .  A
O35         Eu40   2.450       .  S
Eu36         O54   2.364       .  S
Eu36         O42   2.358       .  S
Eu37         O41   2.361       .  S
Eu37         O52   2.368       .  S
Eu38         O52   2.352       .  S
Eu38         O42   2.343       .  S
Eu39         O41   2.345       .  S
Eu39         O54   2.345       .  S
Eu40         O41   2.350       .  S
Eu40         O52   2.345       .  S
Eu40         O54   2.351       .  S
Eu40         O42   2.344       .  S
C43         C589   1.489       .  S
C44         C757   1.505       .  S
C45         C517   1.497       .  S
C46         C546   1.494       .  S
C47         C709   1.505       .  S
C48         C738   1.499       .  S
C49         C685   1.483       .  S
C50         C661   1.486       .  S
H51          O52   0.957       .  S
H53          O54   0.960       .  S
N55          H87   1.038       .  S
N55          C59   1.351   1_565  A
N55         C860   1.351       .  A
N56          C64   1.351       .  A
N56        C1663   1.351   1_455  A
N57          H88   1.037       .  S
N57          C61   1.352       .  A
N57         C862   1.354   1_545  A
N58          C66   1.347       .  A
N58        C1665   1.349   1_455  A
C59          C67   1.387       .  A
C59          C75   1.411       .  A
C60         N855   1.350       .  A
C60          C76   1.411       .  A
C60          C68   1.387       .  A
C61          C69   1.386       .  A
C61          C78   1.413       .  A
C62         N857   1.351       .  A
C62          C77   1.410       .  A
C62          C70   1.387       .  A
C63        N1656   1.351       .  A
C63          C75   1.411       .  A
C63          C71   1.386       .  A
C64          C78   1.411       .  A
C64          C72   1.386       .  A
C65        N1658   1.349       .  A
C65          C73   1.386       .  A
C65          C76   1.409       .  A
C66          C74   1.386       .  A
C66          C77   1.407       .  A
C67         C868   1.376   1_545  A
C67          H79   1.082       .  S
C68         C867   1.375       .  A
C68          H80   1.082       .  S
C69         C870   1.375   1_545  A
C69          H81   1.082       .  S
C70         C869   1.375       .  A
C70          H82   1.082       .  S
C71        C1672   1.372       .  A
C71          H83   1.082       .  S
C72        C1671   1.372   1_455  A
C72          H84   1.082       .  S
C73        C1674   1.373       .  A
C73          H85   1.082       .  S
C74        C1673   1.373       .  A
C74          H86   1.082       .  S
C75         C618   1.483       .  S
C76         C690   1.485       .  S
C77         C666   1.479       .  S
C78         C637   1.483       .  S
O89         C100   1.294       .  A
O89        Eu125   2.482       .  S
O90         C101   1.297       .  A
O90        Eu124   2.494       .  S
O91         C102   1.290       .  A
O91       Eu1697   2.457   1_456  S
O92         C103   1.289       .  A
O92         Eu97   2.454       .  S
O93         C103   1.292       .  A
O93        Eu127   2.460       .  S
O94         C102   1.291       .  A
O94        Eu126   2.454   1_556  S
O95         C101   1.291       .  A
O95         Eu97   2.452       .  S
O96         C100   1.292       .  A
O96         Eu97   2.464   1_556  S
Eu97       O1691   2.457   1_554  S
Eu97        O107   2.346   1_554  S
Eu97         O98   2.357       .  S
Eu97       O1699   2.355   1_554  S
Eu97       O1705   2.354       .  S
O98        Eu127   2.350       .  S
O98        Eu124   2.372       .  S
O99        Eu126   2.349   1_556  S
O99       Eu1697   2.355   1_456  S
O99       Eu1725   2.358   1_455  S
C100        C493   1.482       .  S
C101        C277   1.493       .  S
C102        C330   1.492       .  S
C103        C354   1.496   1_554  S
H104        O105   0.970       .  S
O105       Eu126   2.351       .  S
O105      Eu1697   2.354   1_455  S
O105      Eu1724   2.367   1_455  S
H106        O107   0.962       .  S
O107       Eu125   2.368       .  S
O107       Eu127   2.350   1_556  S
O108        C131   1.298       .  A
O108       Eu924   2.497       .  S
O109        C132   1.296       .  A
O109       Eu925   2.489   1_545  S
O110        C133   1.291       .  A
O110       Eu126   2.449       .  S
O111        C134   1.293       .  A
O111       Eu127   2.461       .  S
O112        C935   1.292       .  A
O112       Eu127   2.454   1_556  S
O113        C936   1.292       .  A
O113       Eu126   2.463   1_556  S
O114        C137   1.291       .  A
O114      Eu1728   2.456   1_455  S
O115        C138   1.291       .  A
O115       Eu128   2.458       .  S
O116        C137   1.287       .  A
O116       Eu926   2.433   1_556  S
O117        C138   1.287       .  A
O117       Eu927   2.441   1_545  S
O118        C133   1.295       .  A
O118      Eu1724   2.483   1_455  S
O119        C136   1.294   1_565  A
O119      Eu2525   2.482   1_455  S
O120        C135   1.294       .  A
O120       Eu925   2.472       .  S
O121        C134   1.294       .  A
O121       Eu124   2.478       .  S
O122        C131   1.292       .  A
O122       Eu128   2.461   1_554  S
O123        C132   1.291       .  A
O123       Eu128   2.460       .  S
Eu124       O908   2.504       .  S
Eu124      O1718   2.483       .  S
Eu124      O1705   2.366       .  S
Eu124       O942   2.367       .  S
Eu124      O2530   2.362       .  S
Eu125       O909   2.485       .  S
Eu125      O2519   2.487       .  S
Eu125       O920   2.474       .  S
Eu125      O1699   2.358       .  S
Eu125       O929   2.362       .  S
Eu125      O2540   2.356       .  S
Eu126       O916   2.444       .  S
Eu126       O940   2.350   1_554  S
Eu126       O930   2.354       .  S
Eu127       O917   2.446   1_554  S
Eu127       O929   2.354   1_554  S
Eu127       O942   2.353       .  S
Eu128      O1714   2.457       .  S
Eu128       O129   2.347       .  S
Eu128       O142   2.349   1_556  S
Eu128      O1740   2.355       .  S
Eu128      O1730   2.359   1_556  S
O129       Eu925   2.363   1_545  S
O129       Eu927   2.348   1_545  S
O130      Eu2524   2.360   1_455  S
O130       Eu926   2.356       .  S
O130      Eu1728   2.359   1_454  S
C131        C301   1.495       .  S
C132        C474   1.485       .  S
C133        C229   1.495       .  S
C134        C258   1.490       .  S
C135        O912   1.292       .  A
C135        C421   1.492       .  S
C136        O913   1.290       .  A
C136        C445   1.480       .  S
C137        C402   1.479       .  S
C138        C373   1.492       .  S
H139        O140   0.967       .  S
O140      Eu2525   2.356   1_445  S
O140       Eu926   2.348   1_556  S
O140      Eu1728   2.355   1_455  S
H141        O142   0.964       .  S
O142       Eu924   2.369       .  S
O142       Eu927   2.354   1_544  S
N143        H175   1.037       .  S
N143        C148   1.352       .  A
N143        C147   1.351       .  A
N144        C151   1.350       .  A
N144        C152   1.351       .  A
N145        H176   1.038       .  S
N145        C150   1.351       .  A
N145        C149   1.351       .  A
N146        C153   1.350       .  A
N146        C154   1.349       .  A
C147        C155   1.387       .  A
C147        C163   1.413       .  A
C148        C164   1.413       .  A
C148        C156   1.386       .  A
C149        C157   1.388       .  A
C149        C166   1.412       .  A
C150        C165   1.410       .  A
C150        C158   1.386       .  A
C151        C163   1.413       .  A
C151        C159   1.387       .  A
C152        C166   1.412       .  A
C152        C160   1.385       .  A
C153        C161   1.386       .  A
C153        C164   1.408       .  A
C154        C162   1.386       .  A
C154        C165   1.409       .  A
C155        C156   1.377       .  A
C155        H167   1.082       .  S
C156        H168   1.082       .  S
C157        C158   1.373       .  A
C157        H169   1.083       .  S
C158        H170   1.082       .  S
C159        C160   1.374       .  A
C159        H171   1.082       .  S
C160        H172   1.082       .  S
C161        C162   1.370       .  A
C161        H173   1.082       .  S
C162        H174   1.082       .  S
C163        C397   1.482       .  S
C164        C325   1.483       .  S
C165        C349   1.481       .  S
C166        C378   1.485       .  S
C177        C178   1.550       .  S
C177        C181   1.539       .  S
C177       C1783   1.537       .  S
C177        C714   1.553       .  S
C178        H185   1.079       .  S
C178       C1779   1.369       .  D
C179        C180   1.539       .  S
C179       C1778   1.369       .  D
C179        C306   1.495       .  S
C180        C184   1.542       .  S
C180        C182   1.547       .  S
C180        H186   1.111       .  S
C181        H187   1.086       .  S
C181       C1782   1.370       .  D
C182       C1781   1.370       .  D
C182        C282   1.500       .  S
C183       C1777   1.537       .  S
C183        H188   1.086       .  S
C183        C184   1.365       .  D
C184        C733   1.484       .  S
C189        C190   1.546       .  S
C189        C195   1.538       .  S
C189        C993   1.534       .  S
C189        C234   1.548       .  S
C190        H197   1.078       .  S
C190        C191   1.366       .  D
C191        C192   1.545       .  S
C191        C762   1.499       .  S
C192        C196   1.545       .  S
C192        C994   1.544       .  S
C192        H198   1.110       .  S
C193        C989   1.532   1_545  S
C193        H199   1.087       .  S
C193        C194   1.363       .  D
C194        C992   1.547       .  S
C194        C781   1.489       .  S
C195        H200   1.086       .  S
C195        C196   1.370       .  D
C196        C253   1.495       .  S
C201        C202   1.544       .  S
C201        C205   1.535       .  S
C201       C1807   1.543       .  S
C201        C541   1.551       .  S
C202        H209   1.084       .  S
C202       C1803   1.364       .  D
C203        C204   1.540       .  S
C203       C1802   1.364       .  D
C203        C498   1.488       .  S
C204        C208   1.541       .  S
C204        C206   1.546       .  S
C204        H210   1.110       .  S
C205        H211   1.086       .  S
C205       C1806   1.369       .  D
C206       C1805   1.369       .  D
C206        C469   1.497       .  S
C207       C1801   1.543       .  S
C207        H212   1.085       .  S
C207        C208   1.372       .  D
C208        C522   1.495       .  S
C213        C219   1.552       .  S
C213        C217   1.537       .  S
C213       C1014   1.533       .  S
C213        C450   1.555       .  S
C214       C1013   1.532   1_545  S
C214        H221   1.086       .  S
C214        C215   1.364       .  D
C215       C1016   1.547   1_545  S
C215        C570   1.496       .  S
C216        C220   1.538       .  S
C216        C218   1.550       .  S
C216       C1015   1.548       .  S
C216        H222   1.111       .  S
C217        H223   1.086       .  S
C217        C218   1.371       .  D
C218        C594   1.500       .  S
C219        H224   1.081       .  S
C219        C220   1.369       .  D
C220        C426   1.492       .  S
C225        C226   1.406       .  A
C225        C230   1.398       .  A
C225        C239   1.444       .  S
C226        C231   1.486       .  S
C226       C1027   1.403       .  A
C227        C228   1.409       .  A
C227       C1026   1.404       .  A
C227        H246   1.085       .  S
C228       C1029   1.419       .  A
C228        C240   1.443       .  S
C229        C230   1.410       .  A
C229       C1028   1.418       .  A
C230        H245   1.085       .  S
C231        C236   1.403       .  A
C231       C1032   1.400       .  A
C232        C233   1.406       .  A
C232       C1031   1.400       .  A
C232        H247   1.085       .  S
C233       C1034   1.426       .  A
C233        C237   1.446       .  S
C234        C235   1.416       .  A
C234       C1033   1.425       .  A
C235        C236   1.400       .  A
C235        H248   1.074       .  S
C236        C238   1.445       .  S
C237        N241   1.158       .  T
C238        N242   1.157       .  T
C239        N244   1.157       .  T
C240        N243   1.157       .  T
C249        C254   1.408       .  A
C249       C1050   1.411       .  A
C249        C263   1.443       .  S
C250        C255   1.487       .  S
C250        C251   1.400       .  A
C250       C1049   1.410       .  A
C251        C252   1.400       .  A
C251        H270   1.085       .  S
C252        C253   1.417       .  A
C252        C264   1.444       .  S
C253       C1054   1.407       .  A
C254       C1053   1.407   1_545  A
C254        H269   1.084       .  S
C255        C256   1.405       .  A
C255       C1060   1.407       .  A
C256        C257   1.409       .  A
C256        H271   1.084       .  S
C257        C258   1.416       .  A
C257        C261   1.444       .  S
C258       C1059   1.406       .  A
C259        C260   1.398       .  A
C259       C1058   1.408   1_545  A
C259        H272   1.084       .  S
C260       C1055   1.408       .  A
C260        C262   1.445       .  S
C261        N265   1.158       .  T
C262        N266   1.157       .  T
C263        N268   1.157       .  T
C264        N267   1.157       .  T
C273        C278   1.401       .  A
C273       C1874   1.409       .  A
C273        C287   1.443       .  S
C274        C279   1.495       .  S
C274        C275   1.407       .  A
C274       C1873   1.409       .  A
C275        C276   1.409       .  A
C275        H294   1.085       .  S
C276        C277   1.415       .  A
C276        C288   1.444       .  S
C277       C1878   1.408       .  A
C278       C1877   1.408       .  A
C278        H293   1.085       .  S
C279        C284   1.413       .  A
C279       C1880   1.402       .  A
C280        C281   1.404       .  A
C280       C1879   1.402   1_455  A
C280        H295   1.085       .  S
C281       C1882   1.418       .  A
C281        C285   1.444       .  S
C282        C283   1.406       .  A
C282       C1881   1.418       .  A
C283        C284   1.407       .  A
C283        H296   1.084       .  S
C284        C286   1.443       .  S
C285        N289   1.157       .  T
C286        N290   1.157       .  T
C287        N292   1.157       .  T
C288        N291   1.158       .  T
C297        C298   1.413       .  A
C297        C302   1.405       .  A
C297        C311   1.444       .  S
C298        C303   1.496       .  S
C298        C299   1.403       .  A
C299        C300   1.407       .  A
C299        H318   1.085       .  S
C300        C301   1.419       .  A
C300       C1912   1.444       .  S
C301        C302   1.405       .  A
C302        H317   1.084       .  S
C303        C308   1.413       .  A
C303       C1904   1.403       .  A
C304        C305   1.401       .  A
C304       C1903   1.403   1_455  A
C304        H319   1.085       .  S
C305       C1906   1.415       .  A
C305        C309   1.444       .  S
C306        C307   1.406       .  A
C306       C1905   1.415       .  A
C307        C308   1.409       .  A
C307        H320   1.084       .  S
C308        C310   1.443       .  S
C309        N313   1.157       .  T
C310        N314   1.157       .  T
C311        N316   1.157       .  T
C312       C1900   1.444       .  S
C312        N315   1.157       .  T
C321        C322   1.410       .  A
C321        C326   1.400       .  A
C321        C335   1.443       .  S
C322        C327   1.478       .  S
C322        C323   1.402   1_556  A
C323        C324   1.399       .  A
C323        H342   1.085       .  S
C324        C325   1.409   1_554  A
C324        C336   1.444       .  S
C325        C326   1.402       .  A
C326        H341   1.084       .  S
C327        C328   1.399       .  A
C327        C332   1.406   1_556  A
C328        C329   1.399       .  A
C328        H343   1.085       .  S
C329        C330   1.420       .  A
C329        C333   1.444       .  S
C330        C331   1.411   1_556  A
C331        C332   1.400       .  A
C331        H344   1.084       .  S
C332        C334   1.444       .  S
C333        N337   1.157       .  T
C334        N338   1.157       .  T
C335        N340   1.157       .  T
C336        N339   1.157       .  T
C345        C346   1.412   1_554  A
C345        C350   1.398       .  A
C345        C359   1.444       .  S
C346        C351   1.484       .  S
C346        C347   1.405       .  A
C347        C348   1.398       .  A
C347        H366   1.085       .  S
C348        C349   1.408       .  A
C348        C360   1.444       .  S
C349        C350   1.401   1_556  A
C350        H365   1.085       .  S
C351        C352   1.400       .  A
C351        C356   1.409       .  A
C352        C353   1.400       .  A
C352        H367   1.085       .  S
C353        C354   1.422       .  A
C353        C357   1.444   1_556  S
C354        C355   1.411       .  A
C355        C356   1.399       .  A
C355        H368   1.084       .  S
C356        C358   1.445       .  S
C357        N361   1.157       .  T
C358        N362   1.157       .  T
C359        N364   1.157       .  T
C360        N363   1.157       .  T
C369        C370   1.406       .  A
C369        C374   1.397       .  A
C369        C383   1.444       .  S
C370        C375   1.476       .  S
C370        C371   1.397       .  A
C371        C372   1.398       .  A
C371        H390   1.085       .  S
C372        C373   1.422       .  A
C372        C384   1.444   1_556  S
C373        C374   1.410       .  A
C374        H389   1.084       .  S
C375        C376   1.402       .  A
C375        C380   1.409   1_556  A
C376        C377   1.399       .  A
C376        H391   1.085       .  S
C377        C378   1.410       .  A
C377        C381   1.443       .  S
C378        C379   1.404   1_556  A
C379        C380   1.397       .  A
C379        H392   1.085       .  S
C380        C382   1.445       .  S
C381        N385   1.157       .  T
C382        N386   1.157       .  T
C383        N388   1.157       .  T
C384        N387   1.157       .  T
C393        C394   1.410       .  A
C393        C398   1.399       .  A
C393        C407   1.444       .  S
C394        C399   1.476       .  S
C394        C395   1.401   1_556  A
C395        C396   1.397       .  A
C395        H414   1.085       .  S
C396        C397   1.410   1_554  A
C396        C408   1.443       .  S
C397        C398   1.402       .  A
C398        H413   1.085       .  S
C399        C400   1.400   1_556  A
C399        C404   1.407       .  A
C400        C401   1.397       .  A
C400        H415   1.085       .  S
C401        C402   1.417   1_554  A
C401        C405   1.446       .  S
C402        C403   1.406       .  A
C403        C404   1.398       .  A
C403        H416   1.085       .  S
C404        C406   1.443       .  S
C405        N409   1.157       .  T
C406        N410   1.157       .  T
C407        N412   1.157       .  T
C408        N411   1.157       .  T
C417        C418   1.408       .  A
C417        C422   1.397       .  A
C417        C431   1.444       .  S
C418        C423   1.490       .  S
C418       C1219   1.404       .  A
C419        C420   1.409       .  A
C419       C1218   1.404       .  A
C419        H438   1.084       .  S
C420        C421   1.418       .  A
C420        C432   1.444       .  S
C421       C1222   1.407   1_565  A
C422       C1221   1.409       .  A
C422        H437   1.085       .  S
C423        C428   1.411       .  A
C423       C1224   1.403       .  A
C424        C425   1.405       .  A
C424       C1223   1.402   1_545  A
C424        H439   1.085       .  S
C425       C1226   1.414   1_545  A
C425        C429   1.442       .  S
C426        C427   1.405       .  A
C426       C1225   1.415       .  A
C427        C428   1.402       .  A
C427        H440   1.085       .  S
C428        C430   1.444       .  S
C429        N433   1.157       .  T
C430        N434   1.157       .  T
C431        N436   1.157       .  T
C432        N435   1.158       .  T
C441        C442   1.412       .  A
C441        C446   1.406       .  A
C441        C455   1.443       .  S
C442        C447   1.496       .  S
C442       C1243   1.405       .  A
C443        C444   1.404       .  A
C443       C1242   1.403       .  A
C443        H462   1.085       .  S
C444        C445   1.413       .  A
C444        C456   1.444       .  S
C445       C1246   1.403   1_545  A
C446       C1245   1.404       .  A
C446        H461   1.085       .  S
C447        C452   1.407       .  A
C447       C1248   1.400       .  A
C448        C449   1.403       .  A
C448       C1247   1.397       .  A
C448        H463   1.085       .  S
C449       C1250   1.427   1_545  A
C449        C453   1.444       .  S
C450        C451   1.416       .  A
C450       C1249   1.427       .  A
C451        C452   1.406       .  A
C451        H464   1.076       .  S
C452        C454   1.445       .  S
C453        N457   1.157       .  T
C454        N458   1.157       .  T
C455        N460   1.157       .  T
C456        N459   1.157       .  T
C465        C466   1.417       .  A
C465        C470   1.408       .  A
C465        C479   1.443       .  S
C466        C471   1.503       .  S
C466       C2067   1.404       .  A
C467        C468   1.403   1_655  A
C467       C2066   1.404       .  A
C467        H486   1.085       .  S
C468       C2069   1.415       .  A
C468        C480   1.443       .  S
C469        C470   1.404       .  A
C469       C2068   1.415       .  A
C470        H485   1.085       .  S
C471        C472   1.407       .  A
C471       C2076   1.418       .  A
C472        C473   1.406       .  A
C472        H487   1.084       .  S
C473        C474   1.412       .  A
C473        C477   1.442       .  S
C474       C2075   1.402       .  A
C475        C476   1.405       .  A
C475       C2074   1.402   1_455  A
C475        H488   1.085       .  S
C476       C2071   1.418   1_455  A
C476        C478   1.443       .  S
C477        N481   1.157       .  T
C478        N482   1.157       .  T
C479        N484   1.157       .  T
C480        N483   1.157       .  T
C489        C494   1.406       .  A
C489       C2090   1.415   1_455  A
C489        C503   1.444       .  S
C490        C495   1.495       .  S
C490        C491   1.404       .  A
C490       C2089   1.415       .  A
C491        C492   1.403       .  A
C491        H510   1.085       .  S
C492        C493   1.412       .  A
C492        C504   1.443       .  S
C493       C2094   1.403       .  A
C494       C2093   1.403   1_455  A
C494        H509   1.085       .  S
C495        C500   1.414       .  A
C495       C2096   1.405       .  A
C496        C497   1.403       .  A
C496       C2095   1.405   1_455  A
C496        H511   1.085       .  S
C497       C2098   1.411       .  A
C497        C501   1.444       .  S
C498        C499   1.404       .  A
C498       C2097   1.411       .  A
C499        C500   1.406       .  A
C499        H512   1.085       .  S
C500        C502   1.444       .  S
C501        N505   1.157       .  T
C502        N506   1.157       .  T
C503        N508   1.157       .  T
C504        N507   1.157       .  T
C513        C514   1.410       .  A
C513        C518   1.406       .  A
C513        C527   1.443       .  S
C514        C519   1.488       .  S
C514        C515   1.399       .  A
C515        C516   1.399       .  A
C515        H534   1.085       .  S
C516        C517   1.423       .  A
C516        C528   1.446       .  S
C517        C518   1.409       .  A
C518        H533   1.084       .  S
C519        C520   1.402       .  A
C519        C524   1.410       .  A
C520        C521   1.404       .  A
C520        H535   1.085       .  S
C521        C522   1.417       .  A
C521        C525   1.442       .  S
C522        C523   1.406       .  A
C523        C524   1.399       .  A
C523        H536   1.085       .  S
C524        C526   1.442       .  S
C525        N529   1.157       .  T
C526        N530   1.157       .  T
C527        N532   1.157       .  T
C528        N531   1.158       .  T
C537        C538   1.406       .  A
C537        C542   1.403       .  A
C537        C551   1.444       .  S
C538        C543   1.496       .  S
C538        C539   1.403       .  A
C539        C540   1.408       .  A
C539        H558   1.085       .  S
C540        C541   1.425       .  A
C540        C552   1.444       .  S
C541        C542   1.415       .  A
C542        H557   1.080       .  S
C543        C544   1.408       .  A
C543        C548   1.409       .  A
C544        C545   1.410       .  A
C544        H559   1.084       .  S
C545        C546   1.414       .  A
C545        C549   1.443       .  S
C546        C547   1.407       .  A
C547        C548   1.400       .  A
C547        H560   1.083       .  S
C548        C550   1.444       .  S
C549        N553   1.157       .  T
C550        N554   1.157       .  T
C551        N556   1.157       .  T
C552       N2155   1.158       .  T
N555       C2152   1.158       .  T
C561        C562   1.416       .  A
C561        C566   1.406       .  A
C561        C575   1.443       .  S
C562        C567   1.498       .  S
C562        C563   1.403       .  A
C563        C564   1.400       .  A
C563        H582   1.085       .  S
C564        C565   1.417       .  A
C564        C576   1.443       .  S
C565        C566   1.405       .  A
C566        H581   1.085       .  S
C567        C568   1.402       .  A
C567        C572   1.416       .  A
C568        C569   1.400       .  A
C568        H583   1.084       .  S
C569        C570   1.418       .  A
C569        C573   1.445       .  S
C570        C571   1.404       .  A
C571        C572   1.407       .  A
C571        H584   1.084       .  S
C572        C574   1.444       .  S
C573        N577   1.157       .  T
C574        N578   1.157       .  T
C575        N580   1.157       .  T
C576        N579   1.156       .  T
C585        C586   1.413       .  A
C585        C590   1.405       .  A
C585        C599   1.444       .  S
C586        C591   1.499       .  S
C586        C587   1.407       .  A
C587        C588   1.407       .  A
C587        H606   1.084       .  S
C588        C589   1.412       .  A
C588        C600   1.444       .  S
C589        C590   1.408       .  A
C590        H605   1.085       .  S
C591        C592   1.404       .  A
C591        C596   1.414       .  A
C592        C593   1.405       .  A
C592        H607   1.085       .  S
C593        C594   1.415       .  A
C593        C597   1.443       .  S
C594        C595   1.407       .  A
C595        C596   1.409       .  A
C595        H608   1.085       .  S
C596        C598   1.443       .  S
C597        N601   1.157       .  T
C598        N602   1.157       .  T
C599        N604   1.157       .  T
C600        N603   1.157       .  T
C609        C610   1.411       .  A
C609        C614   1.400       .  A
C609        C623   1.444       .  S
C610        C615   1.484       .  S
C610        C611   1.401       .  A
C611        C612   1.398       .  A
C611        H630   1.085       .  S
C612        C613   1.416       .  A
C612        C624   1.444       .  S
C613        C614   1.407       .  A
C614        H629   1.085       .  S
C615        C616   1.406       .  A
C615        C620   1.411       .  A
C616        C617   1.400       .  A
C616        H631   1.085       .  S
C617        C618   1.408       .  A
C617        C621   1.443       .  S
C618        C619   1.402       .  A
C619        C620   1.398       .  A
C619        H632   1.085       .  S
C620        C622   1.444       .  S
C621        N625   1.157       .  T
C622        N626   1.157       .  T
C623        N628   1.157       .  T
C624        N627   1.157       .  T
C633        C634   1.409       .  A
C633        C638   1.397       .  A
C633        C647   1.444       .  S
C634        C639   1.476       .  S
C634        C635   1.402       .  A
C635        C636   1.398       .  A
C635        H654   1.085       .  S
C636        C637   1.410       .  A
C636        C648   1.443       .  S
C637        C638   1.402       .  A
C638        H653   1.085       .  S
C639        C640   1.402       .  A
C639        C644   1.408       .  A
C640        C641   1.398       .  A
C640        H655   1.085       .  S
C641        C642   1.413       .  A
C641        C645   1.445       .  S
C642        C643   1.404       .  A
C643        C644   1.394       .  A
C643        H656   1.085       .  S
C644        C646   1.444       .  S
C645        N649   1.157       .  T
C646        N650   1.157       .  T
C647        N652   1.157       .  T
C648        N651   1.157       .  T
C657        C658   1.407       .  A
C657        C662   1.397       .  A
C657        C671   1.444       .  S
C658        C663   1.475       .  S
C658        C659   1.397       .  A
C659        C660   1.395       .  A
C659        H678   1.085       .  S
C660        C661   1.422       .  A
C660        C672   1.445       .  S
C661        C662   1.409       .  A
C662        H677   1.084       .  S
C663        C664   1.402       .  A
C663        C668   1.410       .  A
C664        C665   1.396       .  A
C664        H679   1.085       .  S
C665        C666   1.410       .  A
C665        C669   1.444       .  S
C666        C667   1.401       .  A
C667        C668   1.397       .  A
C667        H680   1.085       .  S
C668        C670   1.444       .  S
C669        N673   1.157       .  T
C670        N674   1.157       .  T
C671        N676   1.157       .  T
C672        N675   1.158       .  T
C681        C682   1.406       .  A
C681        C686   1.398       .  A
C681        C695   1.444       .  S
C682        C687   1.475       .  S
C682        C683   1.399       .  A
C683        C684   1.396       .  A
C683        H702   1.085       .  S
C684        C685   1.417       .  A
C684        C696   1.445       .  S
C685        C686   1.409       .  A
C686        H701   1.085       .  S
C687        C688   1.402       .  A
C687        C692   1.408       .  A
C688        C689   1.397       .  A
C688        H703   1.085       .  S
C689        C690   1.411       .  A
C689        C693   1.444       .  S
C690        C691   1.404       .  A
C691        C692   1.398       .  A
C691        H704   1.085       .  S
C692        C694   1.444       .  S
C693        N697   1.157       .  T
C694        N698   1.157       .  T
C695        N700   1.157       .  T
C696        N699   1.157       .  T
C705        C706   1.406       .  A
C705        C710   1.401       .  A
C705        C719   1.445       .  S
C706        C711   1.493       .  S
C706        C707   1.405       .  A
C707        C708   1.410       .  A
C707        H726   1.084       .  S
C708        C709   1.418       .  A
C708        C720   1.442       .  S
C709        C710   1.414       .  A
C710        H725   1.084       .  S
C711        C712   1.400       .  A
C711        C716   1.405       .  A
C712        C713   1.407       .  A
C712        H727   1.085       .  S
C713        C714   1.426       .  A
C713        C717   1.444       .  S
C714        C715   1.417       .  A
C715        C716   1.404       .  A
C715        H728   1.075       .  S
C716        C718   1.444       .  S
C717        N721   1.157       .  T
C718        N722   1.157       .  T
C719        N724   1.157       .  T
C720        N723   1.157       .  T
C729        C730   1.413       .  A
C729        C734   1.406       .  A
C729        C743   1.445       .  S
C730        C735   1.491       .  S
C730        C731   1.404       .  A
C731        C732   1.402       .  A
C731        H750   1.085       .  S
C732        C733   1.409       .  A
C732        C744   1.443       .  S
C733        C734   1.404       .  A
C734        H749   1.084       .  S
C735        C736   1.397       .  A
C735        C740   1.410       .  A
C736        C737   1.399       .  A
C736        H751   1.085       .  S
C737        C738   1.425       .  A
C737        C741   1.446       .  S
C738        C739   1.409       .  A
C739        C740   1.408       .  A
C739        H752   1.084       .  S
C740        C742   1.443       .  S
C741        N745   1.157       .  T
C742        N746   1.157       .  T
C743        N748   1.157       .  T
C744        N747   1.157       .  T
C753        C754   1.409       .  A
C753        C758   1.400       .  A
C753        C767   1.445       .  S
C754        C759   1.497       .  S
C754        C755   1.405       .  A
C755        C756   1.410       .  A
C755        H774   1.085       .  S
C756        C757   1.420       .  A
C756        C768   1.443       .  S
C757        C758   1.412       .  A
C758        H773   1.084       .  S
C759        C760   1.406       .  A
C759        C764   1.411       .  A
C760        C761   1.410       .  A
C760        H775   1.084       .  S
C761        C762   1.415       .  A
C761        C765   1.442       .  S
C762        C763   1.407       .  A
C763        C764   1.399       .  A
C763        H776   1.085       .  S
C764        C766   1.445       .  S
C765        N769   1.157       .  T
C766        N770   1.157       .  T
C767        N772   1.157       .  T
C768        N771   1.157       .  T
C777        C778   1.412       .  A
C777        C782   1.402       .  A
C777        C791   1.443       .  S
C778        C783   1.500       .  S
C778        C779   1.410       .  A
C779        C780   1.407       .  A
C779        H798   1.084       .  S
C780        C781   1.409       .  A
C780        C792   1.443       .  S
C781        C782   1.405       .  A
C782        H797   1.085       .  S
C783        C784   1.410       .  A
C783        C788   1.413       .  A
C784        C785   1.407       .  A
C784        H799   1.084       .  S
C785        C786   1.411       .  A
C785        C789   1.444       .  S
C786        C787   1.403       .  A
C787        C788   1.402       .  A
C787        H800   1.085       .  S
C788        C790   1.443       .  S
C789        N793   1.157       .  T
C790        N794   1.157       .  T
C791        N796   1.157       .  T
C792       N1595   1.157       .  T
N795       C1592   1.157       .  T
O801        C812   1.296       .  A
O801       Eu837   2.488       .  S
O802        C813   1.297       .  A
O802       Eu836   2.487       .  S
O803        C814   1.290       .  A
O803       Eu809   2.454       .  S
O804        C815   1.291       .  A
O804       Eu809   2.462       .  S
O805        C815   1.288       .  A
O805       Eu839   2.438       .  S
O806        C814   1.289       .  A
O806       Eu838   2.451       .  S
O807        C813   1.289       .  A
O807       Eu809   2.445       .  S
O808        C812   1.290       .  A
O808       Eu809   2.448       .  S
Eu809       O819   2.345       .  S
Eu809       O811   2.357       .  S
Eu809       O810   2.352       .  S
Eu809       O817   2.352       .  S
O810       Eu839   2.343       .  S
O810       Eu836   2.367       .  S
O811       Eu837   2.375       .  S
O811       Eu838   2.351       .  S
C812       C1586   1.479       .  S
C813       C1365   1.490       .  S
C814       C1413   1.486       .  S
C815       C1442   1.485       .  S
H816        O817   0.966       .  S
O817       Eu838   2.346       .  S
O817       Eu836   2.368       .  S
H818        O819   0.959       .  S
O819       Eu837   2.367       .  S
O819       Eu839   2.343       .  S
O820        C843   1.299       .  A
O820       Eu836   2.504       .  S
O821        C844   1.299       .  A
O821       Eu837   2.506       .  S
O822        C845   1.287       .  A
O822       Eu838   2.436       .  S
O823        C846   1.290       .  A
O823       Eu839   2.449       .  S
O824        C847   1.288       .  A
O824       Eu839   2.436       .  S
O825        C848   1.288       .  A
O825       Eu838   2.440       .  S
O826        C849   1.287       .  A
O826       Eu840   2.443       .  S
O827        C850   1.290       .  A
O827       Eu840   2.450       .  S
O828        C849   1.290       .  A
O828       Eu838   2.454       .  S
O829        C850   1.286       .  A
O829       Eu839   2.432       .  S
O830        C845   1.298       .  A
O830       Eu836   2.495       .  S
O831        C848   1.300       .  A
O831       Eu837   2.509       .  S
O832        C847   1.300       .  A
O832       Eu837   2.511       .  S
O833        C846   1.297       .  A
O833       Eu836   2.493       .  S
O834        C843   1.290       .  A
O834       Eu840   2.447       .  S
O835        C844   1.290       .  A
O835       Eu840   2.442       .  S
Eu836       O854   2.363       .  S
Eu836       O842   2.358       .  S
Eu837       O841   2.362       .  S
Eu837       O852   2.369       .  S
Eu838       O852   2.353       .  S
Eu838       O842   2.345       .  S
Eu839       O841   2.348       .  S
Eu839       O854   2.346       .  S
Eu840       O841   2.348       .  S
Eu840       O852   2.350       .  S
Eu840       O854   2.351       .  S
Eu840       O842   2.344       .  S
C843       C1389   1.495       .  S
C844       C1557   1.508       .  S
C845       C1317   1.496       .  S
C846       C1346   1.496       .  S
C847       C1509   1.503       .  S
C848       C1538   1.503       .  S
C849       C1485   1.491       .  S
C850       C1461   1.483       .  S
H851        O852   0.957       .  S
H853        O854   0.960       .  S
N855        H887   1.038       .  S
N855        C859   1.350       .  A
N856       C2463   1.348   1_455  A
N856        C864   1.349       .  A
N857        H888   1.040       .  S
N857        C861   1.352       .  A
N858       C2465   1.349   1_455  A
N858        C866   1.349       .  A
C859        C867   1.388       .  A
C859        C875   1.412       .  A
C860        C876   1.413       .  A
C860        C868   1.387       .  A
C861        C869   1.386       .  A
C861        C878   1.411       .  A
C862        C877   1.417       .  A
C862        C870   1.388       .  A
C863       N2456   1.348       .  A
C863        C875   1.410       .  A
C863        C871   1.388       .  A
C864        C878   1.407       .  A
C864        C872   1.385       .  A
C865       N2458   1.349       .  A
C865        C873   1.386       .  A
C865        C876   1.410       .  A
C866        C874   1.387       .  A
C866        C877   1.410       .  A
C867        H879   1.082       .  S
C868        H880   1.082       .  S
C869        H881   1.082       .  S
C870        H882   1.082       .  S
C871       C2472   1.373       .  A
C871        H883   1.082       .  S
C872       C2471   1.373   1_455  A
C872        H884   1.082       .  S
C873       C2474   1.373       .  A
C873        H885   1.082       .  S
C874       C2473   1.373       .  A
C874        H886   1.082       .  S
C875       C1418   1.477       .  S
C876       C1490   1.484       .  S
C877       C1466   1.485       .  S
C878       C1437   1.483       .  S
O889        C900   1.296       .  A
O889       Eu925   2.490       .  S
O890        C901   1.296       .  A
O890       Eu924   2.485   1_565  S
O891        C902   1.290   1_554  A
O891      Eu2497   2.455   1_455  S
O892        C903   1.287       .  A
O892       Eu897   2.443       .  S
O893        C903   1.290       .  A
O893       Eu927   2.448   1_554  S
O894        C902   1.290       .  A
O894       Eu926   2.452   1_566  S
O895        C901   1.290       .  A
O895       Eu897   2.446       .  S
O896        C900   1.292       .  A
O896       Eu897   2.464   1_556  S
Eu897      O2491   2.455       .  S
Eu897       O907   2.345   1_554  S
Eu897      O2499   2.349   1_554  S
Eu897       O898   2.353       .  S
Eu897      O2505   2.353       .  S
O898       Eu927   2.347   1_554  S
O898       Eu924   2.368   1_565  S
O899      Eu2497   2.349   1_456  S
O899      Eu2525   2.358   1_455  S
O899       Eu926   2.347   1_566  S
C900       C1293   1.486       .  S
C901       C1077   1.487       .  S
C902       C1130   1.496       .  S
C903       C1154   1.491       .  S
H904        O905   0.970       .  S
O905      Eu2497   2.353   1_455  S
O905       Eu926   2.347   1_565  S
O905      Eu2524   2.368   1_465  S
H906        O907   0.962       .  S
O907       Eu925   2.363       .  S
O907       Eu927   2.350       .  S
O908        C931   1.299       .  A
O909        C932   1.295       .  A
O910        C933   1.290       .  A
O910       Eu926   2.445       .  S
O911        C934   1.292       .  A
O911       Eu927   2.455   1_554  S
O912       Eu927   2.455       .  S
O913       Eu926   2.454   1_556  S
O914        C937   1.292       .  A
O914      Eu2528   2.460   1_455  S
O915        C938   1.292       .  A
O915       Eu928   2.459   1_556  S
O916        C937   1.289       .  A
O917        C938   1.288       .  A
O918        C933   1.298       .  A
O918      Eu2524   2.498   1_455  S
O919        C936   1.295       .  A
O919      Eu1725   2.487   1_455  S
O920        C935   1.294       .  A
O921        C934   1.296       .  A
O921       Eu924   2.486   1_565  S
O922        C931   1.290       .  A
O922       Eu928   2.451       .  S
O923        C932   1.292       .  A
O923       Eu928   2.469   1_556  S
Eu924      O2518   2.498       .  S
Eu924      O2505   2.368   1_545  S
Eu924      O1730   2.361       .  S
Eu925      O1719   2.482       .  S
Eu925      O2499   2.358       .  S
Eu925      O1740   2.356   1_565  S
Eu928      O2514   2.460       .  S
Eu928       O929   2.345   1_554  S
Eu928      O2540   2.353   1_554  S
Eu928       O942   2.354       .  S
Eu928      O2530   2.359       .  S
O930      Eu1724   2.362   1_455  S
O930      Eu2528   2.359   1_455  S
C931       C1101   1.492       .  S
C932       C1274   1.486       .  S
C933       C1029   1.502       .  S
C934       C1058   1.495       .  S
C935       C1221   1.497       .  S
C936       C1245   1.487       .  S
C937       C1202   1.485       .  S
C938       C1173   1.493       .  S
H939        O940   0.967       .  S
O940      Eu1725   2.356   1_455  S
O940      Eu2528   2.353   1_456  S
H941        O942   0.964       .  S
N943        H975   1.036       .  S
N943        C948   1.352       .  A
N943        C947   1.353       .  A
N944        C951   1.351       .  A
N944        C952   1.352       .  A
N945        H976   1.036       .  S
N945        C950   1.351       .  A
N945        C949   1.351       .  A
N946        C953   1.350       .  A
N946        C954   1.350       .  A
C947        C955   1.387       .  A
C947        C963   1.415       .  A
C948        C964   1.415       .  A
C948        C956   1.387       .  A
C949        C957   1.388       .  A
C949        C966   1.412       .  A
C950        C965   1.410       .  A
C950        C958   1.386       .  A
C951        C963   1.415       .  A
C951        C959   1.387       .  A
C952        C966   1.412       .  A
C952        C960   1.385       .  A
C953        C961   1.386       .  A
C953        C964   1.410       .  A
C954        C962   1.386       .  A
C954        C965   1.410       .  A
C955        C956   1.377       .  A
C955        H967   1.082       .  S
C956        H968   1.082       .  S
C957        C958   1.373       .  A
C957        H969   1.082       .  S
C958        H970   1.082       .  S
C959        C960   1.373       .  A
C959        H971   1.082       .  S
C960        H972   1.082       .  S
C961        C962   1.371       .  A
C961        H973   1.082       .  S
C962        H974   1.082       .  S
C963       C1197   1.487       .  S
C964       C1125   1.482       .  S
C965       C1149   1.480       .  S
C966       C1178   1.484       .  S
C977        C978   1.551       .  S
C977       C2583   1.541       .  S
C977        C981   1.537       .  S
C977       C1514   1.553       .  S
C978        H985   1.080       .  S
C978       C2579   1.368       .  D
C979        C980   1.541       .  S
C979       C2578   1.368       .  D
C979       C1106   1.495       .  S
C980        C984   1.542       .  S
C980        C982   1.546       .  S
C980        H986   1.111       .  S
C981        H987   1.086       .  S
C981       C2582   1.368       .  D
C982       C2581   1.368       .  D
C982       C1082   1.494       .  S
C983       C2577   1.541       .  S
C983        H988   1.086       .  S
C983        C984   1.365       .  D
C984       C1533   1.489       .  S
C989        C990   1.549       .  S
C989        C995   1.536   1_565  S
C989       C1034   1.548   1_565  S
C990        H997   1.079       .  S
C990        C991   1.370       .  D
C991        C992   1.548   1_565  S
C991       C1562   1.505       .  S
C992        C996   1.547       .  S
C992        H998   1.110       .  S
C993        H999   1.086       .  S
C993        C994   1.364       .  D
C994       C1581   1.486       .  S
C995       H1000   1.086       .  S
C995        C996   1.369       .  D
C996       C1053   1.495   1_545  S
C1001      C1002   1.545       .  S
C1001      C2607   1.544       .  S
C1001      C1005   1.535       .  S
C1001      C1341   1.551       .  S
C1002      H1009   1.084       .  S
C1002      C2603   1.365       .  D
C1003      C1004   1.539       .  S
C1003      C2602   1.365       .  D
C1003      C1298   1.489       .  S
C1004      C1008   1.540       .  S
C1004      C1006   1.545       .  S
C1004      H1010   1.110       .  S
C1005      H1011   1.086       .  S
C1005      C2606   1.368       .  D
C1006      C2605   1.369       .  D
C1006      C1269   1.496       .  S
C1007      C2601   1.544       .  S
C1007      H1012   1.085       .  S
C1007      C1008   1.371       .  D
C1008      C1322   1.492       .  S
C1013      C1019   1.552       .  S
C1013      C1017   1.538       .  S
C1013      C1250   1.550       .  S
C1014      H1021   1.085       .  S
C1014      C1015   1.366       .  D
C1015      C1370   1.497       .  S
C1016      C1020   1.539       .  S
C1016      C1018   1.548       .  S
C1016      H1022   1.111       .  S
C1017      H1023   1.086       .  S
C1017      C1018   1.370       .  D
C1018      C1394   1.498       .  S
C1019      H1024   1.081       .  S
C1019      C1020   1.370       .  D
C1020      C1226   1.492       .  S
C1025      C1026   1.406   1_565  A
C1025      C1030   1.400       .  A
C1025      C1039   1.445       .  S
C1026      C1031   1.489       .  S
C1027      C1028   1.407       .  A
C1027      H1046   1.085       .  S
C1028      C1040   1.443       .  S
C1029      C1030   1.413   1_545  A
C1030      H1045   1.084       .  S
C1031      C1036   1.404   1_545  A
C1032      C1033   1.405       .  A
C1032      H1047   1.085       .  S
C1033      C1037   1.445       .  S
C1034      C1035   1.415   1_545  A
C1035      C1036   1.401       .  A
C1035      H1048   1.075       .  S
C1036      C1038   1.444       .  S
C1037      N1041   1.157       .  T
C1038      N1042   1.157       .  T
C1039      N1044   1.157       .  T
C1040      N1043   1.157       .  T
C1049      C1054   1.407       .  A
C1049      C1063   1.443       .  S
C1050      C1055   1.490       .  S
C1050      C1051   1.401   1_545  A
C1051      C1052   1.400       .  A
C1051      H1070   1.085       .  S
C1052      C1053   1.417       .  A
C1052      C1064   1.444       .  S
C1054      H1069   1.084       .  S
C1055      C1056   1.405   1_545  A
C1056      C1057   1.409       .  A
C1056      H1071   1.084       .  S
C1057      C1058   1.417       .  A
C1057      C1061   1.444       .  S
C1059      C1060   1.398       .  A
C1059      H1072   1.084       .  S
C1060      C1062   1.444       .  S
C1061      N1065   1.157       .  T
C1062      N1066   1.157       .  T
C1063      N1068   1.157       .  T
C1064      N1067   1.157       .  T
C1073      C2674   1.409       .  A
C1073      C1078   1.400       .  A
C1073      C1087   1.444       .  S
C1074      C1079   1.489       .  S
C1074      C2673   1.409       .  A
C1074      C1075   1.406       .  A
C1075      C1076   1.406       .  A
C1075      H1094   1.085       .  S
C1076      C1077   1.414       .  A
C1076      C1088   1.444       .  S
C1077      C2678   1.407       .  A
C1078      C2677   1.407       .  A
C1078      H1093   1.085       .  S
C1079      C2680   1.401       .  A
C1079      C1084   1.411       .  A
C1080      C2679   1.401   1_455  A
C1080      C1081   1.401       .  A
C1080      H1095   1.085       .  S
C1081      C2682   1.417       .  A
C1081      C1085   1.444       .  S
C1082      C2681   1.417       .  A
C1082      C1083   1.405       .  A
C1083      C1084   1.405       .  A
C1083      H1096   1.084       .  S
C1084      C1086   1.443       .  S
C1085      N1089   1.157       .  T
C1086      N1090   1.157       .  T
C1087      N1092   1.157       .  T
C1088      N1091   1.157       .  T
C1097      C1098   1.415       .  A
C1097      C1102   1.406       .  A
C1097      C1111   1.443       .  S
C1098      C1103   1.499       .  S
C1098      C1099   1.404       .  A
C1099      C1100   1.407       .  A
C1099      H1118   1.085       .  S
C1100      C1101   1.417       .  A
C1100      C2712   1.444       .  S
C1101      C1102   1.403       .  A
C1102      H1117   1.084       .  S
C1103      C2704   1.404       .  A
C1103      C1108   1.414       .  A
C1104      C2703   1.404   1_455  A
C1104      C1105   1.403       .  A
C1104      H1119   1.085       .  S
C1105      C2706   1.415       .  A
C1105      C1109   1.444       .  S
C1106      C2705   1.415       .  A
C1106      C1107   1.405       .  A
C1107      C1108   1.408       .  A
C1107      H1120   1.084       .  S
C1108      C1110   1.442       .  S
C1109      N1113   1.157       .  T
C1110      N1114   1.157       .  T
C1111      N1116   1.157       .  T
C1112      C2700   1.444       .  S
C1112      N1115   1.157       .  T
C1121      C1122   1.409       .  A
C1121      C1126   1.399       .  A
C1121      C1135   1.444       .  S
C1122      C1127   1.477       .  S
C1122      C1123   1.402   1_556  A
C1123      C1124   1.399       .  A
C1123      H1142   1.085       .  S
C1124      C1125   1.410   1_554  A
C1124      C1136   1.444       .  S
C1125      C1126   1.401       .  A
C1126      H1141   1.084       .  S
C1127      C1128   1.397       .  A
C1127      C1132   1.405       .  A
C1128      C1129   1.399       .  A
C1128      H1143   1.085       .  S
C1129      C1130   1.422       .  A
C1129      C1133   1.444       .  S
C1130      C1131   1.413       .  A
C1131      C1132   1.400       .  A
C1131      H1144   1.084   1_556  S
C1132      C1134   1.444       .  S
C1133      N1137   1.157       .  T
C1134      N1138   1.157       .  T
C1135      N1140   1.157       .  T
C1136      N1139   1.157       .  T
C1145      C1146   1.410   1_554  A
C1145      C1150   1.397       .  A
C1145      C1159   1.444       .  S
C1146      C1151   1.479       .  S
C1146      C1147   1.404       .  A
C1147      C1148   1.396       .  A
C1147      H1166   1.085       .  S
C1148      C1149   1.408       .  A
C1148      C1160   1.444       .  S
C1149      C1150   1.402   1_556  A
C1150      H1165   1.085       .  S
C1151      C1152   1.399       .  A
C1151      C1156   1.408       .  A
C1152      C1153   1.399   1_556  A
C1152      H1167   1.085       .  S
C1153      C1154   1.422       .  A
C1153      C1157   1.445       .  S
C1154      C1155   1.409   1_554  A
C1155      C1156   1.396       .  A
C1155      H1168   1.084       .  S
C1156      C1158   1.445       .  S
C1157      N1161   1.158       .  T
C1158      N1162   1.157       .  T
C1159      N1164   1.157       .  T
C1160      N1163   1.157       .  T
C1169      C1170   1.406       .  A
C1169      C1174   1.398       .  A
C1169      C1183   1.444       .  S
C1170      C1175   1.476       .  S
C1170      C1171   1.397       .  A
C1171      C1172   1.399   1_556  A
C1171      H1190   1.085   1_556  S
C1172      C1173   1.422   1_554  A
C1172      C1184   1.444       .  S
C1173      C1174   1.411       .  A
C1174      H1189   1.084       .  S
C1175      C1176   1.402       .  A
C1175      C1180   1.408   1_556  A
C1176      C1177   1.399       .  A
C1176      H1191   1.085       .  S
C1177      C1178   1.409       .  A
C1177      C1181   1.443       .  S
C1178      C1179   1.403   1_556  A
C1179      C1180   1.398       .  A
C1179      H1192   1.085       .  S
C1180      C1182   1.444       .  S
C1181      N1185   1.157       .  T
C1182      N1186   1.157       .  T
C1183      N1188   1.157       .  T
C1184      N1187   1.157       .  T
C1193      C1194   1.413       .  A
C1193      C1198   1.401       .  A
C1193      C1207   1.444       .  S
C1194      C1199   1.484       .  S
C1194      C1195   1.403   1_556  A
C1195      C1196   1.400       .  A
C1195      H1214   1.085       .  S
C1196      C1197   1.410   1_554  A
C1196      C1208   1.444       .  S
C1197      C1198   1.401       .  A
C1198      H1213   1.085       .  S
C1199      C1200   1.402   1_556  A
C1199      C1204   1.409       .  A
C1200      C1201   1.401       .  A
C1200      H1215   1.085       .  S
C1201      C1202   1.417       .  A
C1201      C1205   1.446       .  S
C1202      C1203   1.406   1_554  A
C1203      C1204   1.399       .  A
C1203      H1216   1.085       .  S
C1204      C1206   1.443       .  S
C1205      N1209   1.158       .  T
C1206      N1210   1.157       .  T
C1207      N1212   1.157       .  T
C1208      N1211   1.157       .  T
C1217      C1218   1.408   1_545  A
C1217      C1222   1.398       .  A
C1217      C1231   1.444       .  S
C1218      C1223   1.488       .  S
C1219      C1220   1.409       .  A
C1219      H1238   1.084       .  S
C1220      C1221   1.420       .  A
C1220      C1232   1.444       .  S
C1222      H1237   1.085       .  S
C1223      C1228   1.409       .  A
C1224      C1225   1.406       .  A
C1224      H1239   1.085       .  S
C1225      C1229   1.442       .  S
C1226      C1227   1.406       .  A
C1227      C1228   1.403       .  A
C1227      H1240   1.085       .  S
C1228      C1230   1.444       .  S
C1229      N1233   1.157       .  T
C1230      N1234   1.157       .  T
C1231      N1236   1.157       .  T
C1232      N1235   1.158       .  T
C1241      C1242   1.410   1_565  A
C1241      C1246   1.404       .  A
C1241      C1255   1.443       .  S
C1242      C1247   1.489       .  S
C1243      C1244   1.406       .  A
C1243      H1262   1.085       .  S
C1244      C1245   1.414       .  A
C1244      C1256   1.445       .  S
C1246      H1261   1.085       .  S
C1247      C1252   1.406   1_545  A
C1248      C1249   1.407       .  A
C1248      H1263   1.085       .  S
C1249      C1253   1.444       .  S
C1250      C1251   1.416       .  A
C1251      C1252   1.405       .  A
C1251      H1264   1.077       .  S
C1252      C1254   1.445       .  S
C1253      N1257   1.157       .  T
C1254      N1258   1.157       .  T
C1255      N1260   1.157       .  T
C1256      N1259   1.157       .  T
C1265      C1266   1.416       .  A
C1265      C1270   1.408       .  A
C1265      C1279   1.443       .  S
C1266      C1271   1.501       .  S
C1266      C2867   1.404       .  A
C1267      C2866   1.404       .  A
C1267      C1268   1.403   1_655  A
C1267      H1286   1.085       .  S
C1268      C2869   1.415       .  A
C1268      C1280   1.443       .  S
C1269      C2868   1.415       .  A
C1269      C1270   1.404       .  A
C1270      H1285   1.085       .  S
C1271      C1272   1.407       .  A
C1271      C2876   1.416       .  A
C1272      C1273   1.407       .  A
C1272      H1287   1.084       .  S
C1273      C1274   1.412       .  A
C1273      C1277   1.443       .  S
C1274      C2875   1.403       .  A
C1275      C2874   1.403   1_455  A
C1275      C1276   1.405       .  A
C1275      H1288   1.085       .  S
C1276      C2871   1.416   1_455  A
C1276      C1278   1.444       .  S
C1277      N1281   1.157       .  T
C1278      N1282   1.157       .  T
C1279      N1284   1.157       .  T
C1280      N1283   1.157       .  T
C1289      C2890   1.414   1_455  A
C1289      C1294   1.407       .  A
C1289      C1303   1.444       .  S
C1290      C1295   1.496       .  S
C1290      C2889   1.415       .  A
C1290      C1291   1.404       .  A
C1291      C1292   1.405       .  A
C1291      H1310   1.085       .  S
C1292      C1293   1.413       .  A
C1292      C1304   1.443       .  S
C1293      C2894   1.404       .  A
C1294      C2893   1.404   1_455  A
C1294      H1309   1.085       .  S
C1295      C2896   1.405       .  A
C1295      C1300   1.414       .  A
C1296      C2895   1.405   1_455  A
C1296      C1297   1.402       .  A
C1296      H1311   1.085       .  S
C1297      C2898   1.410       .  A
C1297      C1301   1.444       .  S
C1298      C2897   1.410       .  A
C1298      C1299   1.405       .  A
C1299      C1300   1.408       .  A
C1299      H1312   1.085       .  S
C1300      C1302   1.444       .  S
C1301      N1305   1.157       .  T
C1302      N1306   1.157       .  T
C1303      N1308   1.157       .  T
C1304      N1307   1.157       .  T
C1313      C1314   1.408       .  A
C1313      C1318   1.407       .  A
C1313      C1327   1.443       .  S
C1314      C1319   1.484       .  S
C1314      C1315   1.397       .  A
C1315      C1316   1.397       .  A
C1315      H1334   1.086       .  S
C1316      C1317   1.423       .  A
C1316      C1328   1.445       .  S
C1317      C1318   1.410       .  A
C1318      H1333   1.084       .  S
C1319      C1320   1.400       .  A
C1319      C1324   1.410       .  A
C1320      C1321   1.402       .  A
C1320      H1335   1.085       .  S
C1321      C1322   1.416       .  A
C1321      C1325   1.442       .  S
C1322      C1323   1.406       .  A
C1323      C1324   1.401       .  A
C1323      H1336   1.085       .  S
C1324      C1326   1.444       .  S
C1325      N1329   1.157       .  T
C1326      N1330   1.157       .  T
C1327      N1332   1.157       .  T
C1328      N1331   1.157       .  T
C1337      C1338   1.407       .  A
C1337      C1342   1.404       .  A
C1337      C1351   1.444       .  S
C1338      C1343   1.496       .  S
C1338      C1339   1.402       .  A
C1339      C1340   1.407       .  A
C1339      H1358   1.085       .  S
C1340      C1341   1.425       .  A
C1340      C1352   1.444       .  S
C1341      C1342   1.416       .  A
C1342      H1357   1.080       .  S
C1343      C1344   1.407       .  A
C1343      C1348   1.410       .  A
C1344      C1345   1.409       .  A
C1344      H1359   1.084       .  S
C1345      C1346   1.416       .  A
C1345      C1349   1.443       .  S
C1346      C1347   1.409       .  A
C1347      C1348   1.401       .  A
C1347      H1360   1.085       .  S
C1348      C1350   1.444       .  S
C1349      N1353   1.157       .  T
C1350      N1354   1.157       .  T
C1351      N1356   1.157       .  T
C1352      N2955   1.157       .  T
N1355      C2952   1.157       .  T
C1361      C1362   1.416       .  A
C1361      C1366   1.407       .  A
C1361      C1375   1.444       .  S
C1362      C1367   1.497       .  S
C1362      C1363   1.401       .  A
C1363      C1364   1.398       .  A
C1363      H1382   1.085       .  S
C1364      C1365   1.417       .  A
C1364      C1376   1.443       .  S
C1365      C1366   1.406       .  A
C1366      H1381   1.085       .  S
C1367      C1368   1.401       .  A
C1367      C1372   1.417       .  A
C1368      C1369   1.399       .  A
C1368      H1383   1.084       .  S
C1369      C1370   1.419       .  A
C1369      C1373   1.444       .  S
C1370      C1371   1.405       .  A
C1371      C1372   1.407       .  A
C1371      H1384   1.084       .  S
C1372      C1374   1.445       .  S
C1373      N1377   1.157       .  T
C1374      N1378   1.157       .  T
C1375      N1380   1.157       .  T
C1376      N1379   1.157       .  T
C1385      C1386   1.411       .  A
C1385      C1390   1.406       .  A
C1385      C1399   1.444       .  S
C1386      C1391   1.497       .  S
C1386      C1387   1.406       .  A
C1387      C1388   1.408       .  A
C1387      H1406   1.084       .  S
C1388      C1389   1.414       .  A
C1388      C1400   1.444       .  S
C1389      C1390   1.410       .  A
C1390      H1405   1.085       .  S
C1391      C1392   1.403       .  A
C1391      C1396   1.412       .  A
C1392      C1393   1.405       .  A
C1392      H1407   1.085       .  S
C1393      C1394   1.415       .  A
C1393      C1397   1.443       .  S
C1394      C1395   1.407       .  A
C1395      C1396   1.408       .  A
C1395      H1408   1.085       .  S
C1396      C1398   1.443       .  S
C1397      N1401   1.157       .  T
C1398      N1402   1.157       .  T
C1399      N1404   1.157       .  T
C1400      N1403   1.157       .  T
C1409      C1410   1.411       .  A
C1409      C1414   1.402       .  A
C1409      C1423   1.445       .  S
C1410      C1415   1.482       .  S
C1410      C1411   1.399       .  A
C1411      C1412   1.396       .  A
C1411      H1430   1.085       .  S
C1412      C1413   1.417       .  A
C1412      C1424   1.444       .  S
C1413      C1414   1.408       .  A
C1414      H1429   1.085       .  S
C1415      C1416   1.406       .  A
C1415      C1420   1.412       .  A
C1416      C1417   1.398       .  A
C1416      H1431   1.085       .  S
C1417      C1418   1.407       .  A
C1417      C1421   1.445       .  S
C1418      C1419   1.399       .  A
C1419      C1420   1.396       .  A
C1419      H1432   1.085       .  S
C1420      C1422   1.443       .  S
C1421      N1425   1.157       .  T
C1422      N1426   1.157       .  T
C1423      N1428   1.157       .  T
C1424      N1427   1.157       .  T
C1433      C1434   1.410       .  A
C1433      C1438   1.400       .  A
C1433      C1447   1.444       .  S
C1434      C1439   1.477       .  S
C1434      C1435   1.401       .  A
C1435      C1436   1.399       .  A
C1435      H1454   1.085       .  S
C1436      C1437   1.410       .  A
C1436      C1448   1.443       .  S
C1437      C1438   1.402       .  A
C1438      H1453   1.085       .  S
C1439      C1440   1.402       .  A
C1439      C1444   1.405       .  A
C1440      C1441   1.401       .  A
C1440      H1455   1.085       .  S
C1441      C1442   1.416       .  A
C1441      C1445   1.445       .  S
C1442      C1443   1.408       .  A
C1443      C1444   1.397       .  A
C1443      H1456   1.085       .  S
C1444      C1446   1.444       .  S
C1445      N1449   1.158       .  T
C1446      N1450   1.157       .  T
C1447      N1452   1.157       .  T
C1448      N1451   1.157       .  T
C1457      C1458   1.409       .  A
C1457      C1462   1.398       .  A
C1457      C1471   1.444       .  S
C1458      C1463   1.478       .  S
C1458      C1459   1.398       .  A
C1459      C1460   1.396       .  A
C1459      H1478   1.085       .  S
C1460      C1461   1.420       .  A
C1460      C1472   1.445       .  S
C1461      C1462   1.407       .  A
C1462      H1477   1.084       .  S
C1463      C1464   1.400       .  A
C1463      C1468   1.411       .  A
C1464      C1465   1.397       .  A
C1464      H1479   1.085       .  S
C1465      C1466   1.411       .  A
C1465      C1469   1.444       .  S
C1466      C1467   1.403       .  A
C1467      C1468   1.400       .  A
C1467      H1480   1.084       .  S
C1468      C1470   1.444       .  S
C1469      N1473   1.157       .  T
C1470      N1474   1.157       .  T
C1471      N1476   1.157       .  T
C1472      N1475   1.157       .  T
C1481      C1482   1.407       .  A
C1481      C1486   1.400       .  A
C1481      C1495   1.444       .  S
C1482      C1487   1.479       .  S
C1482      C1483   1.398       .  A
C1483      C1484   1.397       .  A
C1483      H1502   1.085       .  S
C1484      C1485   1.421       .  A
C1484      C1496   1.445       .  S
C1485      C1486   1.410       .  A
C1486      H1501   1.084       .  S
C1487      C1488   1.403       .  A
C1487      C1492   1.410       .  A
C1488      C1489   1.399       .  A
C1488      H1503   1.085       .  S
C1489      C1490   1.409       .  A
C1489      C1493   1.444       .  S
C1490      C1491   1.402       .  A
C1491      C1492   1.399       .  A
C1491      H1504   1.085       .  S
C1492      C1494   1.444       .  S
C1493      N1497   1.157       .  T
C1494      N1498   1.157       .  T
C1495      N1500   1.157       .  T
C1496      N1499   1.157       .  T
C1505      C1506   1.407       .  A
C1505      C1510   1.400       .  A
C1505      C1519   1.445       .  S
C1506      C1511   1.495       .  S
C1506      C1507   1.406       .  A
C1507      C1508   1.411       .  A
C1507      H1526   1.084       .  S
C1508      C1509   1.417       .  A
C1508      C1520   1.442       .  S
C1509      C1510   1.413       .  A
C1510      H1525   1.085       .  S
C1511      C1512   1.401       .  A
C1511      C1516   1.405       .  A
C1512      C1513   1.408       .  A
C1512      H1527   1.085       .  S
C1513      C1514   1.426       .  A
C1513      C1517   1.445       .  S
C1514      C1515   1.416       .  A
C1515      C1516   1.404       .  A
C1515      H1528   1.075       .  S
C1516      C1518   1.444       .  S
C1517      N1521   1.157       .  T
C1518      N1522   1.157       .  T
C1519      N1524   1.157       .  T
C1520      N1523   1.157       .  T
C1529      C1530   1.414       .  A
C1529      C1534   1.408       .  A
C1529      C1543   1.444       .  S
C1530      C1535   1.496       .  S
C1530      C1531   1.405       .  A
C1531      C1532   1.404       .  A
C1531      H1550   1.085       .  S
C1532      C1533   1.410       .  A
C1532      C1544   1.443       .  S
C1533      C1534   1.405       .  A
C1534      H1549   1.084       .  S
C1535      C1536   1.399       .  A
C1535      C1540   1.412       .  A
C1536      C1537   1.401       .  A
C1536      H1551   1.085       .  S
C1537      C1538   1.425       .  A
C1537      C1541   1.445       .  S
C1538      C1539   1.409       .  A
C1539      C1540   1.409       .  A
C1539      H1552   1.084       .  S
C1540      C1542   1.442       .  S
C1541      N1545   1.157       .  T
C1542      N1546   1.157       .  T
C1543      N1548   1.157       .  T
C1544      N1547   1.157       .  T
C1553      C1554   1.408       .  A
C1553      C1558   1.400       .  A
C1553      C1567   1.445       .  S
C1554      C1559   1.498       .  S
C1554      C1555   1.406       .  A
C1555      C1556   1.412       .  A
C1555      H1574   1.084       .  S
C1556      C1557   1.419       .  A
C1556      C1568   1.443       .  S
C1557      C1558   1.414       .  A
C1558      H1573   1.084       .  S
C1559      C1560   1.405       .  A
C1559      C1564   1.411       .  A
C1560      C1561   1.410       .  A
C1560      H1575   1.084       .  S
C1561      C1562   1.417       .  A
C1561      C1565   1.442       .  S
C1562      C1563   1.409       .  A
C1563      C1564   1.402       .  A
C1563      H1576   1.084       .  S
C1564      C1566   1.445       .  S
C1565      N1569   1.157       .  T
C1566      N1570   1.157       .  T
C1567      N1572   1.157       .  T
C1568      N1571   1.157       .  T
C1577      C1578   1.413       .  A
C1577      C1582   1.403       .  A
C1577      C1591   1.444       .  S
C1578      C1583   1.497       .  S
C1578      C1579   1.409       .  A
C1579      C1580   1.405       .  A
C1579      H1598   1.084       .  S
C1580      C1581   1.408       .  A
C1580      C1592   1.443       .  S
C1581      C1582   1.404       .  A
C1582      H1597   1.085       .  S
C1583      C1584   1.410       .  A
C1583      C1588   1.413       .  A
C1584      C1585   1.406       .  A
C1584      H1599   1.084       .  S
C1585      C1586   1.411       .  A
C1585      C1589   1.445       .  S
C1586      C1587   1.402       .  A
C1587      C1588   1.400       .  A
C1587      H1600   1.085       .  S
C1588      C1590   1.443       .  S
C1589      N1593   1.157       .  T
C1590      N1594   1.157       .  T
C1591      N1596   1.157       .  T
O1601      C1612   1.296       .  A
O1601     Eu1637   2.489       .  S
O1602      C1613   1.297       .  A
O1602     Eu1636   2.489       .  S
O1603      C1614   1.290       .  A
O1603     Eu1609   2.454       .  S
O1604      C1615   1.288       .  A
O1604     Eu1609   2.444       .  S
O1605      C1615   1.286       .  A
O1605     Eu1639   2.429       .  S
O1606      C1614   1.288       .  A
O1606     Eu1638   2.446       .  S
O1607      C1613   1.291       .  A
O1607     Eu1609   2.452       .  S
O1608      C1612   1.291       .  A
O1608     Eu1609   2.454       .  S
Eu1609     O1619   2.350       .  S
Eu1609     O1611   2.353       .  S
Eu1609     O1610   2.352       .  S
Eu1609     O1617   2.348       .  S
O1610     Eu1639   2.342       .  S
O1610     Eu1636   2.360       .  S
O1611     Eu1637   2.375       .  S
O1611     Eu1638   2.348       .  S
C1612      C2386   1.482       .  S
C1613      C2165   1.490       .  S
C1614      C2213   1.484       .  S
C1615      C2242   1.473       .  S
H1616      O1617   0.966       .  S
O1617     Eu1638   2.348       .  S
O1617     Eu1636   2.371       .  S
H1618      O1619   0.959       .  S
O1619     Eu1637   2.362       .  S
O1619     Eu1639   2.345       .  S
O1620      C1643   1.298       .  A
O1620     Eu1636   2.499       .  S
O1621      C1644   1.297       .  A
O1621     Eu1637   2.494       .  S
O1622      C1645   1.288       .  A
O1622     Eu1638   2.440       .  S
O1623      C1646   1.290       .  A
O1623     Eu1639   2.445       .  S
O1624      C1647   1.289       .  A
O1624     Eu1639   2.439       .  S
O1625      C1648   1.288       .  A
O1625     Eu1638   2.440       .  S
O1626      C1649   1.288       .  A
O1626     Eu1640   2.444       .  S
O1627      C1650   1.290       .  A
O1627     Eu1640   2.451       .  S
O1628      C1649   1.288       .  A
O1628     Eu1638   2.440       .  S
O1629      C1650   1.285       .  A
O1629     Eu1639   2.429       .  S
O1630      C1645   1.297       .  A
O1630     Eu1636   2.490       .  S
O1631      C1648   1.299       .  A
O1631     Eu1637   2.499       .  S
O1632      C1647   1.299       .  A
O1632     Eu1637   2.509       .  S
O1633      C1646   1.297       .  A
O1633     Eu1636   2.498       .  S
O1634      C1643   1.289       .  A
O1634     Eu1640   2.444       .  S
O1635      C1644   1.291       .  A
O1635     Eu1640   2.450       .  S
Eu1636     O1654   2.364       .  S
Eu1636     O1642   2.358       .  S
Eu1637     O1641   2.361       .  S
Eu1637     O1652   2.368       .  S
Eu1638     O1652   2.352       .  S
Eu1638     O1642   2.344       .  S
Eu1639     O1641   2.345       .  S
Eu1639     O1654   2.345       .  S
Eu1640     O1641   2.350       .  S
Eu1640     O1652   2.345       .  S
Eu1640     O1654   2.351       .  S
Eu1640     O1642   2.344       .  S
C1643      C2189   1.489       .  S
C1644      C2357   1.505       .  S
C1645      C2117   1.497       .  S
C1646      C2146   1.494       .  S
C1647      C2309   1.505       .  S
C1648      C2338   1.499       .  S
C1649      C2285   1.483       .  S
C1650      C2261   1.486       .  S
H1651      O1652   0.957       .  S
H1653      O1654   0.960       .  S
N1655      H1687   1.039       .  S
N1655      C2460   1.351       .  A
N1655      C1659   1.351   1_565  A
N1656      C1664   1.351       .  A
N1657      H1688   1.037       .  S
N1657      C2462   1.354   1_545  A
N1657      C1661   1.352       .  A
N1658      C1666   1.347       .  A
C1659      C1667   1.387       .  A
C1659      C1675   1.411       .  A
C1660      N2455   1.350       .  A
C1660      C1676   1.411       .  A
C1660      C1668   1.387       .  A
C1661      C1669   1.386       .  A
C1661      C1678   1.413       .  A
C1662      N2457   1.351       .  A
C1662      C1677   1.410       .  A
C1662      C1670   1.387       .  A
C1663      C1675   1.411       .  A
C1663      C1671   1.386       .  A
C1664      C1678   1.411       .  A
C1664      C1672   1.386       .  A
C1665      C1673   1.386   1_655  A
C1665      C1676   1.409       .  A
C1666      C1674   1.386       .  A
C1666      C1677   1.407       .  A
C1667      C2468   1.376   1_545  A
C1667      H1679   1.082       .  S
C1668      C2467   1.375       .  A
C1668      H1680   1.082       .  S
C1669      C2470   1.375   1_545  A
C1669      H1681   1.082       .  S
C1670      C2469   1.375       .  A
C1670      H1682   1.082       .  S
C1671      H1683   1.082       .  S
C1672      H1684   1.082       .  S
C1673      H1685   1.082   1_455  S
C1674      H1686   1.082       .  S
C1675      C2218   1.483       .  S
C1676      C2290   1.485       .  S
C1677      C2266   1.479       .  S
C1678      C2237   1.483       .  S
O1689      C1700   1.294       .  A
O1689     Eu1725   2.482       .  S
O1690      C1701   1.297       .  A
O1690     Eu1724   2.494       .  S
O1691      C1702   1.291       .  A
O1692      C1703   1.289       .  A
O1692     Eu1697   2.454       .  S
O1693      C1703   1.292       .  A
O1693     Eu1727   2.460       .  S
O1694      C1702   1.291       .  A
O1694     Eu1726   2.454   1_556  S
O1695      C1701   1.291       .  A
O1695     Eu1697   2.452       .  S
O1696      C1700   1.292       .  A
O1696     Eu1697   2.464   1_556  S
Eu1697     O1707   2.346   1_554  S
Eu1697     O1698   2.357       .  S
O1698     Eu1727   2.350       .  S
O1698     Eu1724   2.372       .  S
O1699     Eu1726   2.349   1_556  S
C1700      C2093   1.482       .  S
C1701      C1877   1.493       .  S
C1702      C1930   1.492       .  S
C1703      C1954   1.496   1_554  S
H1704      O1705   0.970       .  S
O1705     Eu1726   2.351       .  S
H1706      O1707   0.962       .  S
O1707     Eu1725   2.368       .  S
O1707     Eu1727   2.350   1_556  S
O1708      C1731   1.298       .  A
O1708     Eu2524   2.497       .  S
O1709      C1732   1.296       .  A
O1709     Eu2525   2.489   1_545  S
O1710      C1733   1.291       .  A
O1710     Eu1726   2.449       .  S
O1711      C1734   1.293       .  A
O1711     Eu1727   2.461       .  S
O1712      C2535   1.292       .  A
O1712     Eu1727   2.454   1_556  S
O1713      C2536   1.292       .  A
O1713     Eu1726   2.463   1_556  S
O1714      C1737   1.291       .  A
O1715      C1738   1.291       .  A
O1715     Eu1728   2.458       .  S
O1716      C1737   1.287       .  A
O1716     Eu2526   2.433   1_556  S
O1717      C1738   1.287       .  A
O1717     Eu2527   2.441   1_545  S
O1718      C1733   1.295       .  A
O1719      C1736   1.294   1_565  A
O1720      C1735   1.294       .  A
O1720     Eu2525   2.472       .  S
O1721      C1734   1.294       .  A
O1721     Eu1724   2.478       .  S
O1722      C1731   1.292       .  A
O1722     Eu1728   2.461   1_554  S
O1723      C1732   1.291       .  A
O1723     Eu1728   2.460       .  S
Eu1724     O2508   2.505       .  S
Eu1724     O2542   2.367       .  S
Eu1725     O2509   2.485       .  S
Eu1725     O2520   2.474       .  S
Eu1725     O2529   2.362       .  S
Eu1726     O2516   2.444       .  S
Eu1726     O2540   2.350   1_554  S
Eu1726     O2530   2.354       .  S
Eu1727     O2517   2.446   1_554  S
Eu1727     O2529   2.354   1_554  S
Eu1727     O2542   2.353       .  S
Eu1728     O1729   2.347       .  S
Eu1728     O1742   2.349   1_556  S
O1729     Eu2525   2.363   1_545  S
O1729     Eu2527   2.348   1_545  S
O1730     Eu2526   2.356       .  S
C1731      C1901   1.495       .  S
C1732      C2074   1.485       .  S
C1733      C1829   1.495       .  S
C1734      C1858   1.490       .  S
C1735      O2512   1.292       .  A
C1735      C2021   1.492       .  S
C1736      O2513   1.290       .  A
C1736      C2045   1.480       .  S
C1737      C2002   1.479       .  S
C1738      C1973   1.492       .  S
H1739      O1740   0.967       .  S
O1740     Eu2526   2.348   1_556  S
H1741      O1742   0.964       .  S
O1742     Eu2524   2.369       .  S
O1742     Eu2527   2.354   1_544  S
N1743      H1775   1.037       .  S
N1743      C1748   1.352       .  A
N1743      C1747   1.351       .  A
N1744      C1751   1.350       .  A
N1744      C1752   1.351       .  A
N1745      H1776   1.038       .  S
N1745      C1750   1.351       .  A
N1745      C1749   1.351       .  A
N1746      C1753   1.350       .  A
N1746      C1754   1.349       .  A
C1747      C1755   1.387       .  A
C1747      C1763   1.413       .  A
C1748      C1764   1.413       .  A
C1748      C1756   1.386       .  A
C1749      C1757   1.388       .  A
C1749      C1766   1.412       .  A
C1750      C1765   1.410       .  A
C1750      C1758   1.386       .  A
C1751      C1763   1.413       .  A
C1751      C1759   1.387       .  A
C1752      C1766   1.412       .  A
C1752      C1760   1.385       .  A
C1753      C1761   1.386       .  A
C1753      C1764   1.408       .  A
C1754      C1762   1.386       .  A
C1754      C1765   1.409       .  A
C1755      C1756   1.377       .  A
C1755      H1767   1.082       .  S
C1756      H1768   1.082       .  S
C1757      C1758   1.373       .  A
C1757      H1769   1.083       .  S
C1758      H1770   1.082       .  S
C1759      C1760   1.374       .  A
C1759      H1771   1.082       .  S
C1760      H1772   1.082       .  S
C1761      C1762   1.370       .  A
C1761      H1773   1.082       .  S
C1762      H1774   1.082       .  S
C1763      C1997   1.482       .  S
C1764      C1925   1.483       .  S
C1765      C1949   1.481       .  S
C1766      C1978   1.485       .  S
C1777      C1778   1.550       .  S
C1777      C1781   1.539       .  S
C1777      C2314   1.553       .  S
C1778      H1785   1.079       .  S
C1779      C1780   1.539   1_455  S
C1779      C1906   1.495       .  S
C1780      C1784   1.542       .  S
C1780      C1782   1.547   1_655  S
C1780      H1786   1.111       .  S
C1781      H1787   1.086       .  S
C1782      C1882   1.500       .  S
C1783      H1788   1.086       .  S
C1783      C1784   1.365   1_455  D
C1784      C2333   1.484       .  S
C1789      C1790   1.546       .  S
C1789      C1795   1.538       .  S
C1789      C2593   1.534       .  S
C1789      C1834   1.548       .  S
C1790      H1797   1.078       .  S
C1790      C1791   1.366       .  D
C1791      C1792   1.545       .  S
C1791      C2362   1.499       .  S
C1792      C1796   1.545       .  S
C1792      C2594   1.544       .  S
C1792      H1798   1.110       .  S
C1793      C2589   1.532   1_545  S
C1793      H1799   1.087       .  S
C1793      C1794   1.363       .  D
C1794      C2592   1.547       .  S
C1794      C2381   1.489       .  S
C1795      H1800   1.086       .  S
C1795      C1796   1.370       .  D
C1796      C1853   1.495       .  S
C1801      C1802   1.544       .  S
C1801      C1805   1.535       .  S
C1801      C2141   1.551       .  S
C1802      H1809   1.084       .  S
C1803      C1804   1.540   1_455  S
C1803      C2098   1.488       .  S
C1804      C1808   1.541       .  S
C1804      C1806   1.546   1_655  S
C1804      H1810   1.110       .  S
C1805      H1811   1.086       .  S
C1806      C2069   1.497       .  S
C1807      H1812   1.085       .  S
C1807      C1808   1.372   1_455  D
C1808      C2122   1.495       .  S
C1813      C2614   1.533       .  S
C1813      C1819   1.552       .  S
C1813      C1817   1.537       .  S
C1813      C2050   1.555       .  S
C1814      C2613   1.532   1_545  S
C1814      H1821   1.086       .  S
C1814      C1815   1.364       .  D
C1815      C2616   1.547   1_545  S
C1815      C2170   1.496       .  S
C1816      C2615   1.548       .  S
C1816      C1820   1.538       .  S
C1816      C1818   1.550       .  S
C1816      H1822   1.111       .  S
C1817      H1823   1.086       .  S
C1817      C1818   1.371       .  D
C1818      C2194   1.499       .  S
C1819      H1824   1.081       .  S
C1819      C1820   1.369       .  D
C1820      C2026   1.492       .  S
C1825      C1826   1.406       .  A
C1825      C1830   1.398       .  A
C1825      C1839   1.444       .  S
C1826      C1831   1.486       .  S
C1826      C2627   1.403       .  A
C1827      C2626   1.404       .  A
C1827      C1828   1.409       .  A
C1827      H1846   1.085       .  S
C1828      C2629   1.419       .  A
C1828      C1840   1.443       .  S
C1829      C2628   1.418       .  A
C1829      C1830   1.410       .  A
C1830      H1845   1.085       .  S
C1831      C2632   1.400       .  A
C1831      C1836   1.403       .  A
C1832      C2631   1.400       .  A
C1832      C1833   1.406       .  A
C1832      H1847   1.085       .  S
C1833      C2634   1.426       .  A
C1833      C1837   1.446       .  S
C1834      C2633   1.425       .  A
C1834      C1835   1.416       .  A
C1835      C1836   1.400       .  A
C1835      H1848   1.074       .  S
C1836      C1838   1.445       .  S
C1837      N1841   1.158       .  T
C1838      N1842   1.157       .  T
C1839      N1844   1.157       .  T
C1840      N1843   1.157       .  T
C1849      C2650   1.411       .  A
C1849      C1854   1.408       .  A
C1849      C1863   1.443       .  S
C1850      C1855   1.487       .  S
C1850      C2649   1.410       .  A
C1850      C1851   1.400       .  A
C1851      C1852   1.400       .  A
C1851      H1870   1.085       .  S
C1852      C1853   1.417       .  A
C1852      C1864   1.444       .  S
C1853      C2654   1.407       .  A
C1854      C2653   1.407   1_545  A
C1854      H1869   1.084       .  S
C1855      C1856   1.405       .  A
C1855      C2660   1.407       .  A
C1856      C1857   1.409       .  A
C1856      H1871   1.084       .  S
C1857      C1858   1.416       .  A
C1857      C1861   1.444       .  S
C1858      C2659   1.406       .  A
C1859      C2658   1.408   1_545  A
C1859      C1860   1.398       .  A
C1859      H1872   1.084       .  S
C1860      C2655   1.408       .  A
C1860      C1862   1.445       .  S
C1861      N1865   1.158       .  T
C1862      N1866   1.157       .  T
C1863      N1868   1.157       .  T
C1864      N1867   1.157       .  T
C1873      C1878   1.401       .  A
C1873      C1887   1.443       .  S
C1874      C1879   1.495       .  S
C1874      C1875   1.407   1_655  A
C1875      C1876   1.409       .  A
C1875      H1894   1.085       .  S
C1876      C1877   1.415   1_455  A
C1876      C1888   1.444       .  S
C1878      H1893   1.085       .  S
C1879      C1884   1.413       .  A
C1880      C1881   1.404       .  A
C1880      H1895   1.085       .  S
C1881      C1885   1.444       .  S
C1882      C1883   1.406   1_455  A
C1883      C1884   1.407       .  A
C1883      H1896   1.084       .  S
C1884      C1886   1.443       .  S
C1885      N1889   1.157       .  T
C1886      N1890   1.157       .  T
C1887      N1892   1.157       .  T
C1888      N1891   1.158       .  T
C1897      C1898   1.413       .  A
C1897      C1902   1.405       .  A
C1897      C1911   1.444   1_655  S
C1898      C1903   1.496       .  S
C1898      C1899   1.403       .  A
C1899      C1900   1.407       .  A
C1899      H1918   1.085       .  S
C1900      C1901   1.419       .  A
C1901      C1902   1.405       .  A
C1902      H1917   1.084   1_655  S
C1903      C1908   1.413       .  A
C1904      C1905   1.401       .  A
C1904      H1919   1.085       .  S
C1905      C1909   1.444       .  S
C1906      C1907   1.406   1_455  A
C1907      C1908   1.409       .  A
C1907      H1920   1.084       .  S
C1908      C1910   1.443       .  S
C1909      N1913   1.157       .  T
C1910      N1914   1.157       .  T
C1911      N1916   1.157       .  T
C1912      N1915   1.157       .  T
C1921      C1922   1.410       .  A
C1921      C1926   1.400       .  A
C1921      C1935   1.443       .  S
C1922      C1927   1.478       .  S
C1922      C1923   1.402   1_556  A
C1923      C1924   1.399       .  A
C1923      H1942   1.085       .  S
C1924      C1925   1.409   1_554  A
C1924      C1936   1.444       .  S
C1925      C1926   1.402       .  A
C1926      H1941   1.084       .  S
C1927      C1928   1.399       .  A
C1927      C1932   1.406   1_556  A
C1928      C1929   1.399       .  A
C1928      H1943   1.085       .  S
C1929      C1930   1.420       .  A
C1929      C1933   1.444       .  S
C1930      C1931   1.411   1_556  A
C1931      C1932   1.400       .  A
C1931      H1944   1.084       .  S
C1932      C1934   1.444       .  S
C1933      N1937   1.157       .  T
C1934      N1938   1.157       .  T
C1935      N1940   1.157       .  T
C1936      N1939   1.157       .  T
C1945      C1946   1.412   1_554  A
C1945      C1950   1.397       .  A
C1945      C1959   1.444       .  S
C1946      C1951   1.484       .  S
C1946      C1947   1.405       .  A
C1947      C1948   1.398       .  A
C1947      H1966   1.085       .  S
C1948      C1949   1.408       .  A
C1948      C1960   1.444       .  S
C1949      C1950   1.401   1_556  A
C1950      H1965   1.085       .  S
C1951      C1952   1.400       .  A
C1951      C1956   1.409       .  A
C1952      C1953   1.400       .  A
C1952      H1967   1.085       .  S
C1953      C1954   1.422       .  A
C1953      C1957   1.444   1_556  S
C1954      C1955   1.411       .  A
C1955      C1956   1.399       .  A
C1955      H1968   1.084       .  S
C1956      C1958   1.445       .  S
C1957      N1961   1.157       .  T
C1958      N1962   1.157       .  T
C1959      N1964   1.157       .  T
C1960      N1963   1.157       .  T
C1969      C1970   1.406       .  A
C1969      C1974   1.397       .  A
C1969      C1983   1.444       .  S
C1970      C1975   1.476       .  S
C1970      C1971   1.397       .  A
C1971      C1972   1.398       .  A
C1971      H1990   1.085       .  S
C1972      C1973   1.422       .  A
C1972      C1984   1.444   1_556  S
C1973      C1974   1.410       .  A
C1974      H1989   1.084       .  S
C1975      C1976   1.402       .  A
C1975      C1980   1.409   1_556  A
C1976      C1977   1.399       .  A
C1976      H1991   1.085       .  S
C1977      C1978   1.410       .  A
C1977      C1981   1.443       .  S
C1978      C1979   1.403   1_556  A
C1979      C1980   1.397       .  A
C1979      H1992   1.085       .  S
C1980      C1982   1.444       .  S
C1981      N1985   1.157       .  T
C1982      N1986   1.157       .  T
C1983      N1988   1.157       .  T
C1984      N1987   1.157       .  T
C1993      C1994   1.410       .  A
C1993      C1998   1.399       .  A
C1993      C2007   1.444       .  S
C1994      C1999   1.476       .  S
C1994      C1995   1.401   1_556  A
C1995      C1996   1.397       .  A
C1995      H2014   1.085       .  S
C1996      C1997   1.410   1_554  A
C1996      C2008   1.443       .  S
C1997      C1998   1.402       .  A
C1998      H2013   1.085       .  S
C1999      C2000   1.400   1_556  A
C1999      C2004   1.407       .  A
C2000      C2001   1.397       .  A
C2000      H2015   1.085       .  S
C2001      C2002   1.417   1_554  A
C2001      C2005   1.446       .  S
C2002      C2003   1.406       .  A
C2003      C2004   1.398       .  A
C2003      H2016   1.085       .  S
C2004      C2006   1.443       .  S
C2005      N2009   1.157       .  T
C2006      N2010   1.157       .  T
C2007      N2012   1.157       .  T
C2008      N2011   1.157       .  T
C2017      C2018   1.408       .  A
C2017      C2022   1.397       .  A
C2017      C2031   1.444       .  S
C2018      C2023   1.490       .  S
C2018      C2819   1.404       .  A
C2019      C2818   1.404       .  A
C2019      C2020   1.409       .  A
C2019      H2038   1.084       .  S
C2020      C2021   1.418       .  A
C2020      C2032   1.444       .  S
C2021      C2822   1.407   1_565  A
C2022      C2821   1.409       .  A
C2022      H2037   1.085       .  S
C2023      C2824   1.403       .  A
C2023      C2028   1.411       .  A
C2024      C2823   1.402   1_545  A
C2024      C2025   1.405       .  A
C2024      H2039   1.085       .  S
C2025      C2826   1.414   1_545  A
C2025      C2029   1.442       .  S
C2026      C2825   1.415       .  A
C2026      C2027   1.405       .  A
C2027      C2028   1.402       .  A
C2027      H2040   1.085       .  S
C2028      C2030   1.444       .  S
C2029      N2033   1.157       .  T
C2030      N2034   1.157       .  T
C2031      N2036   1.157       .  T
C2032      N2035   1.158       .  T
C2041      C2042   1.412       .  A
C2041      C2046   1.406       .  A
C2041      C2055   1.443       .  S
C2042      C2047   1.496       .  S
C2042      C2843   1.405       .  A
C2043      C2842   1.403       .  A
C2043      C2044   1.404       .  A
C2043      H2062   1.085       .  S
C2044      C2045   1.413       .  A
C2044      C2056   1.444       .  S
C2045      C2846   1.403   1_545  A
C2046      C2845   1.404       .  A
C2046      H2061   1.085       .  S
C2047      C2848   1.400       .  A
C2047      C2052   1.407       .  A
C2048      C2847   1.397       .  A
C2048      C2049   1.403       .  A
C2048      H2063   1.085       .  S
C2049      C2850   1.427   1_545  A
C2049      C2053   1.444       .  S
C2050      C2849   1.427       .  A
C2050      C2051   1.416       .  A
C2051      C2052   1.405       .  A
C2051      H2064   1.076       .  S
C2052      C2054   1.445       .  S
C2053      N2057   1.157       .  T
C2054      N2058   1.157       .  T
C2055      N2060   1.157       .  T
C2056      N2059   1.157       .  T
C2065      C2066   1.417       .  A
C2065      C2070   1.408       .  A
C2065      C2079   1.443       .  S
C2066      C2071   1.503       .  S
C2067      C2068   1.403       .  A
C2067      H2086   1.085       .  S
C2068      C2080   1.443       .  S
C2069      C2070   1.404   1_455  A
C2070      H2085   1.085       .  S
C2071      C2072   1.406       .  A
C2072      C2073   1.406       .  A
C2072      H2087   1.084       .  S
C2073      C2074   1.412       .  A
C2073      C2077   1.442       .  S
C2075      C2076   1.405       .  A
C2075      H2088   1.085       .  S
C2076      C2078   1.443       .  S
C2077      N2081   1.157       .  T
C2078      N2082   1.157       .  T
C2079      N2084   1.157       .  T
C2080      N2083   1.157       .  T
C2089      C2094   1.406       .  A
C2089      C2103   1.444       .  S
C2090      C2095   1.495       .  S
C2090      C2091   1.404       .  A
C2091      C2092   1.403       .  A
C2091      H2110   1.085       .  S
C2092      C2093   1.412       .  A
C2092      C2104   1.443       .  S
C2094      H2109   1.085       .  S
C2095      C2100   1.413       .  A
C2096      C2097   1.403       .  A
C2096      H2111   1.085       .  S
C2097      C2101   1.444       .  S
C2098      C2099   1.404   1_455  A
C2099      C2100   1.406       .  A
C2099      H2112   1.085       .  S
C2100      C2102   1.444       .  S
C2101      N2105   1.157       .  T
C2102      N2106   1.157       .  T
C2103      N2108   1.157       .  T
C2104      N2107   1.157       .  T
C2113      C2114   1.410       .  A
C2113      C2118   1.406       .  A
C2113      C2127   1.443       .  S
C2114      C2119   1.488       .  S
C2114      C2115   1.399       .  A
C2115      C2116   1.399       .  A
C2115      H2134   1.085       .  S
C2116      C2117   1.423       .  A
C2116      C2128   1.446       .  S
C2117      C2118   1.409       .  A
C2118      H2133   1.084       .  S
C2119      C2120   1.402       .  A
C2119      C2124   1.410       .  A
C2120      C2121   1.404       .  A
C2120      H2135   1.085       .  S
C2121      C2122   1.417       .  A
C2121      C2125   1.442       .  S
C2122      C2123   1.406       .  A
C2123      C2124   1.399       .  A
C2123      H2136   1.085       .  S
C2124      C2126   1.442       .  S
C2125      N2129   1.157       .  T
C2126      N2130   1.157       .  T
C2127      N2132   1.157       .  T
C2128      N2131   1.158       .  T
C2137      C2138   1.406       .  A
C2137      C2142   1.403       .  A
C2137      C2151   1.444       .  S
C2138      C2143   1.496       .  S
C2138      C2139   1.403       .  A
C2139      C2140   1.408       .  A
C2139      H2158   1.085       .  S
C2140      C2141   1.425       .  A
C2140      C2152   1.444       .  S
C2141      C2142   1.415       .  A
C2142      H2157   1.080       .  S
C2143      C2144   1.408       .  A
C2143      C2148   1.409       .  A
C2144      C2145   1.410       .  A
C2144      H2159   1.084       .  S
C2145      C2146   1.414       .  A
C2145      C2149   1.443       .  S
C2146      C2147   1.407       .  A
C2147      C2148   1.400       .  A
C2147      H2160   1.083       .  S
C2148      C2150   1.444       .  S
C2149      N2153   1.157       .  T
C2150      N2154   1.157       .  T
C2151      N2156   1.157       .  T
C2161      C2162   1.416       .  A
C2161      C2166   1.407       .  A
C2161      C2175   1.443       .  S
C2162      C2167   1.498       .  S
C2162      C2163   1.403       .  A
C2163      C2164   1.400       .  A
C2163      H2182   1.085       .  S
C2164      C2165   1.417       .  A
C2164      C2176   1.443       .  S
C2165      C2166   1.405       .  A
C2166      H2181   1.085       .  S
C2167      C2168   1.402       .  A
C2167      C2172   1.416       .  A
C2168      C2169   1.400       .  A
C2168      H2183   1.084       .  S
C2169      C2170   1.418       .  A
C2169      C2173   1.445       .  S
C2170      C2171   1.404       .  A
C2171      C2172   1.407       .  A
C2171      H2184   1.084       .  S
C2172      C2174   1.444       .  S
C2173      N2177   1.157       .  T
C2174      N2178   1.157       .  T
C2175      N2180   1.157       .  T
C2176      N2179   1.156       .  T
C2185      C2186   1.413       .  A
C2185      C2190   1.405       .  A
C2185      C2199   1.444       .  S
C2186      C2191   1.499       .  S
C2186      C2187   1.407       .  A
C2187      C2188   1.407       .  A
C2187      H2206   1.084       .  S
C2188      C2189   1.412       .  A
C2188      C2200   1.444       .  S
C2189      C2190   1.407       .  A
C2190      H2205   1.085       .  S
C2191      C2192   1.404       .  A
C2191      C2196   1.414       .  A
C2192      C2193   1.405       .  A
C2192      H2207   1.085       .  S
C2193      C2194   1.415       .  A
C2193      C2197   1.443       .  S
C2194      C2195   1.407       .  A
C2195      C2196   1.409       .  A
C2195      H2208   1.085       .  S
C2196      C2198   1.443       .  S
C2197      N2201   1.157       .  T
C2198      N2202   1.157       .  T
C2199      N2204   1.157       .  T
C2200      N2203   1.157       .  T
C2209      C2210   1.411       .  A
C2209      C2214   1.400       .  A
C2209      C2223   1.444       .  S
C2210      C2215   1.484       .  S
C2210      C2211   1.401       .  A
C2211      C2212   1.398       .  A
C2211      H2230   1.085       .  S
C2212      C2213   1.416       .  A
C2212      C2224   1.444       .  S
C2213      C2214   1.407       .  A
C2214      H2229   1.085       .  S
C2215      C2216   1.406       .  A
C2215      C2220   1.411       .  A
C2216      C2217   1.400       .  A
C2216      H2231   1.085       .  S
C2217      C2218   1.408       .  A
C2217      C2221   1.443       .  S
C2218      C2219   1.402       .  A
C2219      C2220   1.398       .  A
C2219      H2232   1.085       .  S
C2220      C2222   1.444       .  S
C2221      N2225   1.157       .  T
C2222      N2226   1.157       .  T
C2223      N2228   1.157       .  T
C2224      N2227   1.157       .  T
C2233      C2234   1.409       .  A
C2233      C2238   1.397       .  A
C2233      C2247   1.444       .  S
C2234      C2239   1.476       .  S
C2234      C2235   1.402       .  A
C2235      C2236   1.398       .  A
C2235      H2254   1.085       .  S
C2236      C2237   1.410       .  A
C2236      C2248   1.443       .  S
C2237      C2238   1.402       .  A
C2238      H2253   1.085       .  S
C2239      C2240   1.402       .  A
C2239      C2244   1.408       .  A
C2240      C2241   1.398       .  A
C2240      H2255   1.085       .  S
C2241      C2242   1.413       .  A
C2241      C2245   1.445       .  S
C2242      C2243   1.404       .  A
C2243      C2244   1.394       .  A
C2243      H2256   1.085       .  S
C2244      C2246   1.444       .  S
C2245      N2249   1.157       .  T
C2246      N2250   1.157       .  T
C2247      N2252   1.157       .  T
C2248      N2251   1.157       .  T
C2257      C2258   1.407       .  A
C2257      C2262   1.397       .  A
C2257      C2271   1.444       .  S
C2258      C2263   1.475       .  S
C2258      C2259   1.397       .  A
C2259      C2260   1.395       .  A
C2259      H2278   1.085       .  S
C2260      C2261   1.422       .  A
C2260      C2272   1.445       .  S
C2261      C2262   1.409       .  A
C2262      H2277   1.084       .  S
C2263      C2264   1.402       .  A
C2263      C2268   1.410       .  A
C2264      C2265   1.396       .  A
C2264      H2279   1.085       .  S
C2265      C2266   1.410       .  A
C2265      C2269   1.444       .  S
C2266      C2267   1.401       .  A
C2267      C2268   1.397       .  A
C2267      H2280   1.085       .  S
C2268      C2270   1.444       .  S
C2269      N2273   1.157       .  T
C2270      N2274   1.157       .  T
C2271      N2276   1.157       .  T
C2272      N2275   1.158       .  T
C2281      C2282   1.406       .  A
C2281      C2286   1.398       .  A
C2281      C2295   1.444       .  S
C2282      C2287   1.475       .  S
C2282      C2283   1.399       .  A
C2283      C2284   1.396       .  A
C2283      H2302   1.085       .  S
C2284      C2285   1.418       .  A
C2284      C2296   1.445       .  S
C2285      C2286   1.409       .  A
C2286      H2301   1.085       .  S
C2287      C2288   1.402       .  A
C2287      C2292   1.408       .  A
C2288      C2289   1.397       .  A
C2288      H2303   1.085       .  S
C2289      C2290   1.411       .  A
C2289      C2293   1.444       .  S
C2290      C2291   1.404       .  A
C2291      C2292   1.398       .  A
C2291      H2304   1.085       .  S
C2292      C2294   1.444       .  S
C2293      N2297   1.157       .  T
C2294      N2298   1.157       .  T
C2295      N2300   1.157       .  T
C2296      N2299   1.157       .  T
C2305      C2306   1.406       .  A
C2305      C2310   1.401       .  A
C2305      C2319   1.445       .  S
C2306      C2311   1.493       .  S
C2306      C2307   1.405       .  A
C2307      C2308   1.410       .  A
C2307      H2326   1.084       .  S
C2308      C2309   1.418       .  A
C2308      C2320   1.442       .  S
C2309      C2310   1.414       .  A
C2310      H2325   1.084       .  S
C2311      C2312   1.400       .  A
C2311      C2316   1.405       .  A
C2312      C2313   1.407       .  A
C2312      H2327   1.085       .  S
C2313      C2314   1.426       .  A
C2313      C2317   1.444       .  S
C2314      C2315   1.417       .  A
C2315      C2316   1.404       .  A
C2315      H2328   1.075       .  S
C2316      C2318   1.444       .  S
C2317      N2321   1.157       .  T
C2318      N2322   1.157       .  T
C2319      N2324   1.157       .  T
C2320      N2323   1.157       .  T
C2329      C2330   1.413       .  A
C2329      C2334   1.406       .  A
C2329      C2343   1.445       .  S
C2330      C2335   1.491       .  S
C2330      C2331   1.404       .  A
C2331      C2332   1.402       .  A
C2331      H2350   1.085       .  S
C2332      C2333   1.409       .  A
C2332      C2344   1.443       .  S
C2333      C2334   1.404       .  A
C2334      H2349   1.084       .  S
C2335      C2336   1.397       .  A
C2335      C2340   1.410       .  A
C2336      C2337   1.399       .  A
C2336      H2351   1.085       .  S
C2337      C2338   1.425       .  A
C2337      C2341   1.446       .  S
C2338      C2339   1.409       .  A
C2339      C2340   1.408       .  A
C2339      H2352   1.084       .  S
C2340      C2342   1.443       .  S
C2341      N2345   1.157       .  T
C2342      N2346   1.157       .  T
C2343      N2348   1.157       .  T
C2344      N2347   1.157       .  T
C2353      C2354   1.409       .  A
C2353      C2358   1.400       .  A
C2353      C2367   1.445       .  S
C2354      C2359   1.496       .  S
C2354      C2355   1.405       .  A
C2355      C2356   1.410       .  A
C2355      H2374   1.085       .  S
C2356      C2357   1.420       .  A
C2356      C2368   1.443       .  S
C2357      C2358   1.412       .  A
C2358      H2373   1.084       .  S
C2359      C2360   1.406       .  A
C2359      C2364   1.411       .  A
C2360      C2361   1.410       .  A
C2360      H2375   1.084       .  S
C2361      C2362   1.415       .  A
C2361      C2365   1.442       .  S
C2362      C2363   1.407       .  A
C2363      C2364   1.399       .  A
C2363      H2376   1.085       .  S
C2364      C2366   1.445       .  S
C2365      N2369   1.157       .  T
C2366      N2370   1.157       .  T
C2367      N2372   1.157       .  T
C2368      N2371   1.157       .  T
C2377      C2378   1.413       .  A
C2377      C2382   1.402       .  A
C2377      C2391   1.443       .  S
C2378      C2383   1.500       .  S
C2378      C2379   1.410       .  A
C2379      C2380   1.407       .  A
C2379      H2398   1.084       .  S
C2380      C2381   1.409       .  A
C2380      C2392   1.443       .  S
C2381      C2382   1.405       .  A
C2382      H2397   1.085       .  S
C2383      C2384   1.410       .  A
C2383      C2388   1.413       .  A
C2384      C2385   1.407       .  A
C2384      H2399   1.084       .  S
C2385      C2386   1.411       .  A
C2385      C2389   1.444       .  S
C2386      C2387   1.403       .  A
C2387      C2388   1.402       .  A
C2387      H2400   1.085       .  S
C2388      C2390   1.443       .  S
C2389      N2393   1.157       .  T
C2390      N2394   1.157       .  T
C2391      N2396   1.157       .  T
C2392      N3195   1.157       .  T
N2395      C3192   1.157       .  T
O2401      C2412   1.296       .  A
O2401     Eu2437   2.488       .  S
O2402      C2413   1.297       .  A
O2402     Eu2436   2.487       .  S
O2403      C2414   1.290       .  A
O2403     Eu2409   2.453       .  S
O2404      C2415   1.291       .  A
O2404     Eu2409   2.462       .  S
O2405      C2415   1.288       .  A
O2405     Eu2439   2.438       .  S
O2406      C2414   1.289       .  A
O2406     Eu2438   2.451       .  S
O2407      C2413   1.289       .  A
O2407     Eu2409   2.445       .  S
O2408      C2412   1.290       .  A
O2408     Eu2409   2.448       .  S
Eu2409     O2419   2.345       .  S
Eu2409     O2411   2.358       .  S
Eu2409     O2410   2.352       .  S
Eu2409     O2417   2.352       .  S
O2410     Eu2439   2.343       .  S
O2410     Eu2436   2.367       .  S
O2411     Eu2437   2.375       .  S
O2411     Eu2438   2.351       .  S
C2412      C3186   1.480       .  S
C2413      C2965   1.490       .  S
C2414      C3013   1.486       .  S
C2415      C3042   1.485       .  S
H2416      O2417   0.966       .  S
O2417     Eu2438   2.346       .  S
O2417     Eu2436   2.368       .  S
H2418      O2419   0.959       .  S
O2419     Eu2437   2.367       .  S
O2419     Eu2439   2.343       .  S
O2420      C2443   1.299       .  A
O2420     Eu2436   2.504       .  S
O2421      C2444   1.299       .  A
O2421     Eu2437   2.506       .  S
O2422      C2445   1.287       .  A
O2422     Eu2438   2.436       .  S
O2423      C2446   1.290       .  A
O2423     Eu2439   2.449       .  S
O2424      C2447   1.288       .  A
O2424     Eu2439   2.435       .  S
O2425      C2448   1.288       .  A
O2425     Eu2438   2.440       .  S
O2426      C2449   1.287       .  A
O2426     Eu2440   2.443       .  S
O2427      C2450   1.290       .  A
O2427     Eu2440   2.451       .  S
O2428      C2449   1.290       .  A
O2428     Eu2438   2.455       .  S
O2429      C2450   1.286       .  A
O2429     Eu2439   2.432       .  S
O2430      C2445   1.298       .  A
O2430     Eu2436   2.495       .  S
O2431      C2448   1.300       .  A
O2431     Eu2437   2.509       .  S
O2432      C2447   1.300       .  A
O2432     Eu2437   2.511       .  S
O2433      C2446   1.297       .  A
O2433     Eu2436   2.493       .  S
O2434      C2443   1.290       .  A
O2434     Eu2440   2.447       .  S
O2435      C2444   1.290       .  A
O2435     Eu2440   2.442       .  S
Eu2436     O2454   2.363       .  S
Eu2436     O2442   2.358       .  S
Eu2437     O2441   2.362       .  S
Eu2437     O2452   2.369       .  S
Eu2438     O2452   2.353       .  S
Eu2438     O2442   2.345       .  S
Eu2439     O2441   2.348       .  S
Eu2439     O2454   2.346       .  S
Eu2440     O2441   2.348       .  S
Eu2440     O2452   2.350       .  S
Eu2440     O2454   2.351       .  S
Eu2440     O2442   2.344       .  S
C2443      C2989   1.495       .  S
C2444      C3157   1.508       .  S
C2445      C2917   1.496       .  S
C2446      C2946   1.496       .  S
C2447      C3109   1.503       .  S
C2448      C3138   1.503       .  S
C2449      C3085   1.492       .  S
C2450      C3061   1.484       .  S
H2451      O2452   0.957       .  S
H2453      O2454   0.960       .  S
N2455      H2487   1.038       .  S
N2455      C2459   1.350       .  A
N2456      C2464   1.349       .  A
N2457      H2488   1.040       .  S
N2457      C2461   1.352       .  A
N2458      C2466   1.349       .  A
C2459      C2467   1.388       .  A
C2459      C2475   1.412       .  A
C2460      C2476   1.413       .  A
C2460      C2468   1.387       .  A
C2461      C2469   1.386       .  A
C2461      C2478   1.411       .  A
C2462      C2477   1.417       .  A
C2462      C2470   1.388       .  A
C2463      C2475   1.410       .  A
C2463      C2471   1.388       .  A
C2464      C2478   1.407       .  A
C2464      C2472   1.385       .  A
C2465      C2473   1.386   1_655  A
C2465      C2476   1.410       .  A
C2466      C2474   1.387       .  A
C2466      C2477   1.410       .  A
C2467      H2479   1.082       .  S
C2468      H2480   1.082       .  S
C2469      H2481   1.082       .  S
C2470      H2482   1.082       .  S
C2471      H2483   1.082       .  S
C2472      H2484   1.082       .  S
C2473      H2485   1.082   1_455  S
C2474      H2486   1.082       .  S
C2475      C3018   1.477       .  S
C2476      C3090   1.484       .  S
C2477      C3066   1.485       .  S
C2478      C3037   1.483       .  S
O2489      C2500   1.296       .  A
O2489     Eu2525   2.490       .  S
O2490      C2501   1.296       .  A
O2490     Eu2524   2.485   1_565  S
O2491      C2502   1.290   1_554  A
O2492      C2503   1.287       .  A
O2492     Eu2497   2.443       .  S
O2493      C2503   1.290       .  A
O2493     Eu2527   2.448   1_554  S
O2494      C2502   1.290       .  A
O2494     Eu2526   2.452   1_566  S
O2495      C2501   1.290       .  A
O2495     Eu2497   2.446       .  S
O2496      C2500   1.292       .  A
O2496     Eu2497   2.464   1_556  S
Eu2497     O2507   2.345   1_554  S
Eu2497     O2498   2.353       .  S
O2498     Eu2527   2.347   1_554  S
O2498     Eu2524   2.369   1_565  S
O2499     Eu2526   2.347   1_566  S
C2500      C2893   1.486       .  S
C2501      C2677   1.487       .  S
C2502      C2730   1.496       .  S
C2503      C2754   1.491       .  S
H2504      O2505   0.970       .  S
O2505     Eu2526   2.348   1_565  S
H2506      O2507   0.962       .  S
O2507     Eu2525   2.363       .  S
O2507     Eu2527   2.350       .  S
O2508      C2531   1.299       .  A
O2509      C2532   1.295       .  A
O2510      C2533   1.290       .  A
O2510     Eu2526   2.445       .  S
O2511      C2534   1.292       .  A
O2511     Eu2527   2.455   1_554  S
O2512     Eu2527   2.455       .  S
O2513     Eu2526   2.454   1_556  S
O2514      C2537   1.292       .  A
O2515      C2538   1.292       .  A
O2515     Eu2528   2.459   1_556  S
O2516      C2537   1.289       .  A
O2517      C2538   1.288       .  A
O2518      C2533   1.298       .  A
O2519      C2536   1.295       .  A
O2520      C2535   1.294       .  A
O2521      C2534   1.296       .  A
O2521     Eu2524   2.486   1_565  S
O2522      C2531   1.290       .  A
O2522     Eu2528   2.451       .  S
O2523      C2532   1.292       .  A
O2523     Eu2528   2.469   1_556  S
Eu2528     O2529   2.345   1_554  S
Eu2528     O2542   2.354       .  S
C2531      C2701   1.492       .  S
C2532      C2874   1.486       .  S
C2533      C2629   1.502       .  S
C2534      C2658   1.494       .  S
C2535      C2821   1.497       .  S
C2536      C2845   1.487       .  S
C2537      C2802   1.485       .  S
C2538      C2773   1.493       .  S
H2539      O2540   0.967       .  S
H2541      O2542   0.964       .  S
N2543      H2575   1.036       .  S
N2543      C2548   1.352       .  A
N2543      C2547   1.353       .  A
N2544      C2551   1.351       .  A
N2544      C2552   1.352       .  A
N2545      H2576   1.036       .  S
N2545      C2550   1.351       .  A
N2545      C2549   1.351       .  A
N2546      C2553   1.350       .  A
N2546      C2554   1.350       .  A
C2547      C2555   1.387       .  A
C2547      C2563   1.415       .  A
C2548      C2564   1.415       .  A
C2548      C2556   1.387       .  A
C2549      C2557   1.388       .  A
C2549      C2566   1.412       .  A
C2550      C2565   1.410       .  A
C2550      C2558   1.386       .  A
C2551      C2563   1.415       .  A
C2551      C2559   1.387       .  A
C2552      C2566   1.413       .  A
C2552      C2560   1.385       .  A
C2553      C2561   1.386       .  A
C2553      C2564   1.410       .  A
C2554      C2562   1.386       .  A
C2554      C2565   1.410       .  A
C2555      C2556   1.377       .  A
C2555      H2567   1.082       .  S
C2556      H2568   1.082       .  S
C2557      C2558   1.373       .  A
C2557      H2569   1.082       .  S
C2558      H2570   1.082       .  S
C2559      C2560   1.373       .  A
C2559      H2571   1.082       .  S
C2560      H2572   1.082       .  S
C2561      C2562   1.371       .  A
C2561      H2573   1.082       .  S
C2562      H2574   1.082       .  S
C2563      C2797   1.487       .  S
C2564      C2725   1.482       .  S
C2565      C2749   1.480       .  S
C2566      C2778   1.484       .  S
C2577      C2578   1.551       .  S
C2577      C2581   1.537       .  S
C2577      C3114   1.553       .  S
C2578      H2585   1.080       .  S
C2579      C2580   1.541   1_455  S
C2579      C2706   1.495       .  S
C2580      C2584   1.542       .  S
C2580      C2582   1.546   1_655  S
C2580      H2586   1.111       .  S
C2581      H2587   1.086       .  S
C2582      C2682   1.494       .  S
C2583      H2588   1.086       .  S
C2583      C2584   1.365   1_455  D
C2584      C3133   1.489       .  S
C2589      C2590   1.549       .  S
C2589      C2595   1.536   1_565  S
C2589      C2634   1.548   1_565  S
C2590      H2597   1.079       .  S
C2590      C2591   1.370       .  D
C2591      C2592   1.548   1_565  S
C2591      C3162   1.505       .  S
C2592      C2596   1.547       .  S
C2592      H2598   1.110       .  S
C2593      H2599   1.086       .  S
C2593      C2594   1.364       .  D
C2594      C3181   1.486       .  S
C2595      H2600   1.086       .  S
C2595      C2596   1.369       .  D
C2596      C2653   1.495   1_545  S
C2601      C2602   1.545       .  S
C2601      C2605   1.535       .  S
C2601      C2941   1.551       .  S
C2602      H2609   1.084       .  S
C2603      C2604   1.539   1_455  S
C2603      C2898   1.489       .  S
C2604      C2608   1.540       .  S
C2604      C2606   1.545   1_655  S
C2604      H2610   1.110       .  S
C2605      H2611   1.086       .  S
C2606      C2869   1.496       .  S
C2607      H2612   1.085       .  S
C2607      C2608   1.371   1_455  D
C2608      C2922   1.492       .  S
C2613      C2619   1.552       .  S
C2613      C2617   1.538       .  S
C2613      C2850   1.550       .  S
C2614      H2621   1.085       .  S
C2614      C2615   1.366       .  D
C2615      C2970   1.497       .  S
C2616      C2620   1.539       .  S
C2616      C2618   1.548       .  S
C2616      H2622   1.111       .  S
C2617      H2623   1.086       .  S
C2617      C2618   1.370       .  D
C2618      C2994   1.498       .  S
C2619      H2624   1.081       .  S
C2619      C2620   1.370       .  D
C2620      C2826   1.492       .  S
C2625      C2626   1.406   1_565  A
C2625      C2630   1.400       .  A
C2625      C2639   1.445       .  S
C2626      C2631   1.489       .  S
C2627      C2628   1.407       .  A
C2627      H2646   1.085       .  S
C2628      C2640   1.443       .  S
C2629      C2630   1.413   1_545  A
C2630      H2645   1.084       .  S
C2631      C2636   1.404   1_545  A
C2632      C2633   1.405       .  A
C2632      H2647   1.085       .  S
C2633      C2637   1.445       .  S
C2634      C2635   1.415   1_545  A
C2635      C2636   1.401       .  A
C2635      H2648   1.075       .  S
C2636      C2638   1.444       .  S
C2637      N2641   1.157       .  T
C2638      N2642   1.157       .  T
C2639      N2644   1.157       .  T
C2640      N2643   1.157       .  T
C2649      C2654   1.407       .  A
C2649      C2663   1.443       .  S
C2650      C2655   1.490       .  S
C2650      C2651   1.401   1_545  A
C2651      C2652   1.400       .  A
C2651      H2670   1.085       .  S
C2652      C2653   1.417       .  A
C2652      C2664   1.444       .  S
C2654      H2669   1.084       .  S
C2655      C2656   1.406   1_545  A
C2656      C2657   1.409       .  A
C2656      H2671   1.084       .  S
C2657      C2658   1.417       .  A
C2657      C2661   1.444       .  S
C2659      C2660   1.398       .  A
C2659      H2672   1.084       .  S
C2660      C2662   1.444       .  S
C2661      N2665   1.157       .  T
C2662      N2666   1.157       .  T
C2663      N2668   1.157       .  T
C2664      N2667   1.157       .  T
C2673      C2678   1.400       .  A
C2673      C2687   1.444       .  S
C2674      C2679   1.489       .  S
C2674      C2675   1.406   1_655  A
C2675      C2676   1.406       .  A
C2675      H2694   1.085       .  S
C2676      C2677   1.414   1_455  A
C2676      C2688   1.444       .  S
C2678      H2693   1.085       .  S
C2679      C2684   1.411       .  A
C2680      C2681   1.401       .  A
C2680      H2695   1.085       .  S
C2681      C2685   1.444       .  S
C2682      C2683   1.405   1_455  A
C2683      C2684   1.405       .  A
C2683      H2696   1.084       .  S
C2684      C2686   1.443       .  S
C2685      N2689   1.157       .  T
C2686      N2690   1.157       .  T
C2687      N2692   1.157       .  T
C2688      N2691   1.157       .  T
C2697      C2698   1.415   1_455  A
C2697      C2702   1.406       .  A
C2697      C2711   1.443       .  S
C2698      C2703   1.499       .  S
C2698      C2699   1.404       .  A
C2699      C2700   1.407       .  A
C2699      H2718   1.085       .  S
C2700      C2701   1.417       .  A
C2701      C2702   1.403   1_655  A
C2702      H2717   1.084       .  S
C2703      C2708   1.414       .  A
C2704      C2705   1.403       .  A
C2704      H2719   1.085       .  S
C2705      C2709   1.444       .  S
C2706      C2707   1.405   1_455  A
C2707      C2708   1.408       .  A
C2707      H2720   1.084       .  S
C2708      C2710   1.442       .  S
C2709      N2713   1.157       .  T
C2710      N2714   1.157       .  T
C2711      N2716   1.157       .  T
C2712      N2715   1.157       .  T
C2721      C2722   1.409       .  A
C2721      C2726   1.399       .  A
C2721      C2735   1.444       .  S
C2722      C2727   1.477       .  S
C2722      C2723   1.402   1_556  A
C2723      C2724   1.399       .  A
C2723      H2742   1.085       .  S
C2724      C2725   1.410   1_554  A
C2724      C2736   1.444       .  S
C2725      C2726   1.401       .  A
C2726      H2741   1.084       .  S
C2727      C2728   1.397       .  A
C2727      C2732   1.405       .  A
C2728      C2729   1.399       .  A
C2728      H2743   1.085       .  S
C2729      C2730   1.422       .  A
C2729      C2733   1.444       .  S
C2730      C2731   1.413       .  A
C2731      C2732   1.400       .  A
C2731      H2744   1.084   1_556  S
C2732      C2734   1.444       .  S
C2733      N2737   1.157       .  T
C2734      N2738   1.157       .  T
C2735      N2740   1.157       .  T
C2736      N2739   1.157       .  T
C2745      C2746   1.410   1_554  A
C2745      C2750   1.397       .  A
C2745      C2759   1.444       .  S
C2746      C2751   1.479       .  S
C2746      C2747   1.404       .  A
C2747      C2748   1.396       .  A
C2747      H2766   1.085       .  S
C2748      C2749   1.408       .  A
C2748      C2760   1.443       .  S
C2749      C2750   1.402   1_556  A
C2750      H2765   1.085       .  S
C2751      C2752   1.399       .  A
C2751      C2756   1.408       .  A
C2752      C2753   1.399   1_556  A
C2752      H2767   1.085       .  S
C2753      C2754   1.422       .  A
C2753      C2757   1.445       .  S
C2754      C2755   1.409   1_554  A
C2755      C2756   1.396       .  A
C2755      H2768   1.084       .  S
C2756      C2758   1.445       .  S
C2757      N2761   1.158       .  T
C2758      N2762   1.157       .  T
C2759      N2764   1.157       .  T
C2760      N2763   1.157       .  T
C2769      C2770   1.406       .  A
C2769      C2774   1.398       .  A
C2769      C2783   1.444       .  S
C2770      C2775   1.476       .  S
C2770      C2771   1.397       .  A
C2771      C2772   1.399   1_556  A
C2771      H2790   1.085   1_556  S
C2772      C2773   1.422   1_554  A
C2772      C2784   1.444       .  S
C2773      C2774   1.411       .  A
C2774      H2789   1.084       .  S
C2775      C2776   1.402       .  A
C2775      C2780   1.408   1_556  A
C2776      C2777   1.399       .  A
C2776      H2791   1.085       .  S
C2777      C2778   1.409       .  A
C2777      C2781   1.443       .  S
C2778      C2779   1.403   1_556  A
C2779      C2780   1.398       .  A
C2779      H2792   1.085       .  S
C2780      C2782   1.444       .  S
C2781      N2785   1.157       .  T
C2782      N2786   1.157       .  T
C2783      N2788   1.157       .  T
C2784      N2787   1.157       .  T
C2793      C2794   1.413       .  A
C2793      C2798   1.401       .  A
C2793      C2807   1.444       .  S
C2794      C2799   1.484       .  S
C2794      C2795   1.403   1_556  A
C2795      C2796   1.400       .  A
C2795      H2814   1.085       .  S
C2796      C2797   1.410   1_554  A
C2796      C2808   1.444       .  S
C2797      C2798   1.401       .  A
C2798      H2813   1.085       .  S
C2799      C2800   1.402   1_556  A
C2799      C2804   1.409       .  A
C2800      C2801   1.401       .  A
C2800      H2815   1.085       .  S
C2801      C2802   1.417       .  A
C2801      C2805   1.446       .  S
C2802      C2803   1.406   1_554  A
C2803      C2804   1.399       .  A
C2803      H2816   1.085       .  S
C2804      C2806   1.443       .  S
C2805      N2809   1.158       .  T
C2806      N2810   1.157       .  T
C2807      N2812   1.157       .  T
C2808      N2811   1.157       .  T
C2817      C2818   1.408   1_545  A
C2817      C2822   1.398       .  A
C2817      C2831   1.444       .  S
C2818      C2823   1.488       .  S
C2819      C2820   1.409       .  A
C2819      H2838   1.084       .  S
C2820      C2821   1.420       .  A
C2820      C2832   1.444       .  S
C2822      H2837   1.085       .  S
C2823      C2828   1.409       .  A
C2824      C2825   1.406       .  A
C2824      H2839   1.085       .  S
C2825      C2829   1.442       .  S
C2826      C2827   1.406       .  A
C2827      C2828   1.403       .  A
C2827      H2840   1.085       .  S
C2828      C2830   1.444       .  S
C2829      N2833   1.157       .  T
C2830      N2834   1.157       .  T
C2831      N2836   1.157       .  T
C2832      N2835   1.158       .  T
C2841      C2842   1.410   1_565  A
C2841      C2846   1.404       .  A
C2841      C2855   1.443       .  S
C2842      C2847   1.489       .  S
C2843      C2844   1.406       .  A
C2843      H2862   1.085       .  S
C2844      C2845   1.414       .  A
C2844      C2856   1.445       .  S
C2846      H2861   1.085       .  S
C2847      C2852   1.406   1_545  A
C2848      C2849   1.407       .  A
C2848      H2863   1.085       .  S
C2849      C2853   1.444       .  S
C2850      C2851   1.416       .  A
C2851      C2852   1.405       .  A
C2851      H2864   1.077       .  S
C2852      C2854   1.445       .  S
C2853      N2857   1.157       .  T
C2854      N2858   1.157       .  T
C2855      N2860   1.157       .  T
C2856      N2859   1.157       .  T
C2865      C2866   1.416       .  A
C2865      C2870   1.407       .  A
C2865      C2879   1.443       .  S
C2866      C2871   1.501       .  S
C2867      C2868   1.403       .  A
C2867      H2886   1.085       .  S
C2868      C2880   1.443       .  S
C2869      C2870   1.404   1_455  A
C2870      H2885   1.085       .  S
C2871      C2872   1.407       .  A
C2872      C2873   1.407       .  A
C2872      H2887   1.084       .  S
C2873      C2874   1.412       .  A
C2873      C2877   1.443       .  S
C2875      C2876   1.405       .  A
C2875      H2888   1.085       .  S
C2876      C2878   1.444       .  S
C2877      N2881   1.157       .  T
C2878      N2882   1.157       .  T
C2879      N2884   1.157       .  T
C2880      N2883   1.157       .  T
C2889      C2894   1.407       .  A
C2889      C2903   1.444       .  S
C2890      C2895   1.496       .  S
C2890      C2891   1.404       .  A
C2891      C2892   1.405       .  A
C2891      H2910   1.085       .  S
C2892      C2893   1.413       .  A
C2892      C2904   1.443       .  S
C2894      H2909   1.085       .  S
C2895      C2900   1.414       .  A
C2896      C2897   1.402       .  A
C2896      H2911   1.085       .  S
C2897      C2901   1.444       .  S
C2898      C2899   1.405   1_455  A
C2899      C2900   1.408       .  A
C2899      H2912   1.085       .  S
C2900      C2902   1.444       .  S
C2901      N2905   1.157       .  T
C2902      N2906   1.157       .  T
C2903      N2908   1.157       .  T
C2904      N2907   1.157       .  T
C2913      C2914   1.408       .  A
C2913      C2918   1.407       .  A
C2913      C2927   1.443       .  S
C2914      C2919   1.484       .  S
C2914      C2915   1.397       .  A
C2915      C2916   1.397       .  A
C2915      H2934   1.086       .  S
C2916      C2917   1.423       .  A
C2916      C2928   1.445       .  S
C2917      C2918   1.410       .  A
C2918      H2933   1.084       .  S
C2919      C2920   1.400       .  A
C2919      C2924   1.410       .  A
C2920      C2921   1.402       .  A
C2920      H2935   1.085       .  S
C2921      C2922   1.416       .  A
C2921      C2925   1.442       .  S
C2922      C2923   1.406       .  A
C2923      C2924   1.401       .  A
C2923      H2936   1.085       .  S
C2924      C2926   1.444       .  S
C2925      N2929   1.157       .  T
C2926      N2930   1.157       .  T
C2927      N2932   1.157       .  T
C2928      N2931   1.157       .  T
C2937      C2938   1.407       .  A
C2937      C2942   1.404       .  A
C2937      C2951   1.444       .  S
C2938      C2943   1.496       .  S
C2938      C2939   1.402       .  A
C2939      C2940   1.407       .  A
C2939      H2958   1.085       .  S
C2940      C2941   1.425       .  A
C2940      C2952   1.444       .  S
C2941      C2942   1.416       .  A
C2942      H2957   1.080       .  S
C2943      C2944   1.407       .  A
C2943      C2948   1.410       .  A
C2944      C2945   1.409       .  A
C2944      H2959   1.084       .  S
C2945      C2946   1.416       .  A
C2945      C2949   1.443       .  S
C2946      C2947   1.409       .  A
C2947      C2948   1.401       .  A
C2947      H2960   1.085       .  S
C2948      C2950   1.444       .  S
C2949      N2953   1.157       .  T
C2950      N2954   1.157       .  T
C2951      N2956   1.157       .  T
C2961      C2962   1.416       .  A
C2961      C2966   1.407       .  A
C2961      C2975   1.444       .  S
C2962      C2967   1.497       .  S
C2962      C2963   1.401       .  A
C2963      C2964   1.398       .  A
C2963      H2982   1.085       .  S
C2964      C2965   1.417       .  A
C2964      C2976   1.443       .  S
C2965      C2966   1.406       .  A
C2966      H2981   1.085       .  S
C2967      C2968   1.401       .  A
C2967      C2972   1.417       .  A
C2968      C2969   1.399       .  A
C2968      H2983   1.084       .  S
C2969      C2970   1.419       .  A
C2969      C2973   1.444       .  S
C2970      C2971   1.405       .  A
C2971      C2972   1.407       .  A
C2971      H2984   1.084       .  S
C2972      C2974   1.445       .  S
C2973      N2977   1.157       .  T
C2974      N2978   1.157       .  T
C2975      N2980   1.157       .  T
C2976      N2979   1.157       .  T
C2985      C2986   1.411       .  A
C2985      C2990   1.406       .  A
C2985      C2999   1.444       .  S
C2986      C2991   1.497       .  S
C2986      C2987   1.406       .  A
C2987      C2988   1.408       .  A
C2987      H3006   1.084       .  S
C2988      C2989   1.414       .  A
C2988      C3000   1.444       .  S
C2989      C2990   1.410       .  A
C2990      H3005   1.085       .  S
C2991      C2992   1.403       .  A
C2991      C2996   1.412       .  A
C2992      C2993   1.405       .  A
C2992      H3007   1.085       .  S
C2993      C2994   1.415       .  A
C2993      C2997   1.443       .  S
C2994      C2995   1.407       .  A
C2995      C2996   1.408       .  A
C2995      H3008   1.085       .  S
C2996      C2998   1.443       .  S
C2997      N3001   1.157       .  T
C2998      N3002   1.157       .  T
C2999      N3004   1.157       .  T
C3000      N3003   1.157       .  T
C3009      C3010   1.411       .  A
C3009      C3014   1.402       .  A
C3009      C3023   1.445       .  S
C3010      C3015   1.482       .  S
C3010      C3011   1.399       .  A
C3011      C3012   1.396       .  A
C3011      H3030   1.085       .  S
C3012      C3013   1.417       .  A
C3012      C3024   1.444       .  S
C3013      C3014   1.408       .  A
C3014      H3029   1.085       .  S
C3015      C3016   1.406       .  A
C3015      C3020   1.412       .  A
C3016      C3017   1.398       .  A
C3016      H3031   1.085       .  S
C3017      C3018   1.407       .  A
C3017      C3021   1.445       .  S
C3018      C3019   1.399       .  A
C3019      C3020   1.396       .  A
C3019      H3032   1.085       .  S
C3020      C3022   1.443       .  S
C3021      N3025   1.157       .  T
C3022      N3026   1.157       .  T
C3023      N3028   1.157       .  T
C3024      N3027   1.157       .  T
C3033      C3034   1.410       .  A
C3033      C3038   1.400       .  A
C3033      C3047   1.444       .  S
C3034      C3039   1.477       .  S
C3034      C3035   1.401       .  A
C3035      C3036   1.399       .  A
C3035      H3054   1.085       .  S
C3036      C3037   1.410       .  A
C3036      C3048   1.443       .  S
C3037      C3038   1.402       .  A
C3038      H3053   1.085       .  S
C3039      C3040   1.402       .  A
C3039      C3044   1.405       .  A
C3040      C3041   1.401       .  A
C3040      H3055   1.085       .  S
C3041      C3042   1.416       .  A
C3041      C3045   1.445       .  S
C3042      C3043   1.408       .  A
C3043      C3044   1.397       .  A
C3043      H3056   1.085       .  S
C3044      C3046   1.444       .  S
C3045      N3049   1.158       .  T
C3046      N3050   1.157       .  T
C3047      N3052   1.157       .  T
C3048      N3051   1.157       .  T
C3057      C3058   1.409       .  A
C3057      C3062   1.398       .  A
C3057      C3071   1.444       .  S
C3058      C3063   1.478       .  S
C3058      C3059   1.398       .  A
C3059      C3060   1.396       .  A
C3059      H3078   1.085       .  S
C3060      C3061   1.420       .  A
C3060      C3072   1.445       .  S
C3061      C3062   1.407       .  A
C3062      H3077   1.084       .  S
C3063      C3064   1.400       .  A
C3063      C3068   1.411       .  A
C3064      C3065   1.397       .  A
C3064      H3079   1.085       .  S
C3065      C3066   1.411       .  A
C3065      C3069   1.444       .  S
C3066      C3067   1.403       .  A
C3067      C3068   1.400       .  A
C3067      H3080   1.084       .  S
C3068      C3070   1.444       .  S
C3069      N3073   1.157       .  T
C3070      N3074   1.157       .  T
C3071      N3076   1.157       .  T
C3072      N3075   1.157       .  T
C3081      C3082   1.407       .  A
C3081      C3086   1.401       .  A
C3081      C3095   1.444       .  S
C3082      C3087   1.479       .  S
C3082      C3083   1.398       .  A
C3083      C3084   1.397       .  A
C3083      H3102   1.085       .  S
C3084      C3085   1.421       .  A
C3084      C3096   1.445       .  S
C3085      C3086   1.410       .  A
C3086      H3101   1.084       .  S
C3087      C3088   1.403       .  A
C3087      C3092   1.410       .  A
C3088      C3089   1.399       .  A
C3088      H3103   1.085       .  S
C3089      C3090   1.409       .  A
C3089      C3093   1.444       .  S
C3090      C3091   1.402       .  A
C3091      C3092   1.399       .  A
C3091      H3104   1.085       .  S
C3092      C3094   1.444       .  S
C3093      N3097   1.157       .  T
C3094      N3098   1.157       .  T
C3095      N3100   1.157       .  T
C3096      N3099   1.157       .  T
C3105      C3106   1.407       .  A
C3105      C3110   1.400       .  A
C3105      C3119   1.445       .  S
C3106      C3111   1.494       .  S
C3106      C3107   1.406       .  A
C3107      C3108   1.411       .  A
C3107      H3126   1.084       .  S
C3108      C3109   1.417       .  A
C3108      C3120   1.442       .  S
C3109      C3110   1.413       .  A
C3110      H3125   1.085       .  S
C3111      C3112   1.401       .  A
C3111      C3116   1.405       .  A
C3112      C3113   1.408       .  A
C3112      H3127   1.085       .  S
C3113      C3114   1.426       .  A
C3113      C3117   1.445       .  S
C3114      C3115   1.416       .  A
C3115      C3116   1.404       .  A
C3115      H3128   1.075       .  S
C3116      C3118   1.444       .  S
C3117      N3121   1.157       .  T
C3118      N3122   1.157       .  T
C3119      N3124   1.157       .  T
C3120      N3123   1.157       .  T
C3129      C3130   1.414       .  A
C3129      C3134   1.408       .  A
C3129      C3143   1.444       .  S
C3130      C3135   1.497       .  S
C3130      C3131   1.405       .  A
C3131      C3132   1.404       .  A
C3131      H3150   1.085       .  S
C3132      C3133   1.410       .  A
C3132      C3144   1.443       .  S
C3133      C3134   1.405       .  A
C3134      H3149   1.084       .  S
C3135      C3136   1.399       .  A
C3135      C3140   1.412       .  A
C3136      C3137   1.401       .  A
C3136      H3151   1.085       .  S
C3137      C3138   1.425       .  A
C3137      C3141   1.445       .  S
C3138      C3139   1.409       .  A
C3139      C3140   1.409       .  A
C3139      H3152   1.084       .  S
C3140      C3142   1.442       .  S
C3141      N3145   1.157       .  T
C3142      N3146   1.157       .  T
C3143      N3148   1.157       .  T
C3144      N3147   1.157       .  T
C3153      C3154   1.408       .  A
C3153      C3158   1.400       .  A
C3153      C3167   1.445       .  S
C3154      C3159   1.498       .  S
C3154      C3155   1.406       .  A
C3155      C3156   1.412       .  A
C3155      H3174   1.084       .  S
C3156      C3157   1.419       .  A
C3156      C3168   1.443       .  S
C3157      C3158   1.414       .  A
C3158      H3173   1.084       .  S
C3159      C3160   1.405       .  A
C3159      C3164   1.411       .  A
C3160      C3161   1.410       .  A
C3160      H3175   1.084       .  S
C3161      C3162   1.417       .  A
C3161      C3165   1.442       .  S
C3162      C3163   1.409       .  A
C3163      C3164   1.402       .  A
C3163      H3176   1.084       .  S
C3164      C3166   1.444       .  S
C3165      N3169   1.157       .  T
C3166      N3170   1.157       .  T
C3167      N3172   1.157       .  T
C3168      N3171   1.157       .  T
C3177      C3178   1.413       .  A
C3177      C3182   1.403       .  A
C3177      C3191   1.444       .  S
C3178      C3183   1.497       .  S
C3178      C3179   1.409       .  A
C3179      C3180   1.405       .  A
C3179      H3198   1.084       .  S
C3180      C3181   1.408       .  A
C3180      C3192   1.443       .  S
C3181      C3182   1.404       .  A
C3182      H3197   1.085       .  S
C3183      C3184   1.410       .  A
C3183      C3188   1.413       .  A
C3184      C3185   1.406       .  A
C3184      H3199   1.084       .  S
C3185      C3186   1.411       .  A
C3185      C3189   1.445       .  S
C3186      C3187   1.402       .  A
C3187      C3188   1.400       .  A
C3187      H3200   1.085       .  S
C3188      C3190   1.443       .  S
C3189      N3193   1.157       .  T
C3190      N3194   1.157       .  T
C3191      N3196   1.157       .  T
