geometry optimzed in LAMMPS
_audit_creation_date              2020-11-30 
_audit_creation_method            'lammps2cif' 
_symmetry_space_group_name_H-M    'P1' 
_symmetry_Int_Tables_number       1 
_symmetry_cell_setting            triclinic 
loop_ 
_symmetry_equiv_pos_as_xyz 
  x,y,z 
_cell_length_a                    36.05931399419994 
_cell_length_b                    36.239599502324765 
_cell_length_c                    35.96600975655803 
_cell_angle_alpha                 90.40775832939208 
_cell_angle_beta                  90.36962968651297 
_cell_angle_gamma                 90.1995110887208 
loop_ 
_atom_site_label 
_atom_site_type_symbol 
_atom_site_fract_x 
_atom_site_fract_y 
_atom_site_fract_z 
_atom_site_charge 
C1          C  0.14432167  0.88422765  0.52986845     0.01900
C2          C  0.12192962  0.85189564  0.53323001     0.01900
C3          C  0.10395770  0.83712697  0.50132037     0.01900
C4          C  0.11867973  0.84608425  0.46568437     0.01900
C5          C  0.13885668  0.88067009  0.46128371     0.01900
C6          C  0.14730091  0.90207997  0.49448521     0.01900
C7          C  0.15814035  0.08545989  0.46642374     0.01900
C8          C  0.16510017  0.06539636  0.49978471     0.01900
C9          C  0.15562666  0.08409596  0.53320559     0.01900
C10         C  0.12650811  0.11077527  0.53287237     0.01900
C11         C  0.10691667  0.11695994  0.49941085     0.01900
C12         C  0.12534463  0.10817639  0.46573657     0.01900
C13         C  0.92560333  0.09542733  0.53643587     0.01900
C14         C  0.94378838  0.10655038  0.50336027     0.01900
C15         C  0.92454325  0.10113750  0.46877875     0.01900
C16         C  0.89509182  0.07372661  0.46651394     0.01900
C17         C  0.88982280  0.05066186  0.49837112     0.01900
C18         C  0.89886344  0.06602721  0.53380211     0.01900
C19         C  0.92262520  0.84402968  0.46526335     0.01900
C20         C  0.94151049  0.83548010  0.49870817     0.01900
C21         C  0.92220820  0.84159824  0.53245985     0.01900
C22         C  0.89545323  0.87084112  0.53368233     0.01900
C23         C  0.88307499  0.88766098  0.49975010     0.01900
C24         C  0.89117189  0.86817519  0.46616552     0.01900
C25         C  0.49057926  0.10304272  0.10198008     0.01900
C26         C  0.52312106  0.10967513  0.08075909     0.01900
C27         C  0.55787290  0.10307785  0.09926842     0.01900
C28         C  0.55848119  0.07509143  0.12796116     0.01900
C29         C  0.52473104  0.05850434  0.13987002     0.01900
C30         C  0.49151185  0.07830277  0.13283915     0.01900
C31         C  0.48700993  0.10667188  0.89400372     0.01900
C32         C  0.51827476  0.11783268  0.91555920     0.01900
C33         C  0.55318987  0.11096201  0.89946323     0.01900
C34         C  0.55702306  0.08069348  0.87388620     0.01900
C35         C  0.52536460  0.05966269  0.86177707     0.01900
C36         C  0.49058936  0.07802222  0.86626128     0.01900
C37         C  0.48590067  0.87476290  0.12404900     0.01900
C38         C  0.51848319  0.89558935  0.13254442     0.01900
C39         C  0.55295427  0.87789112  0.12613353     0.01900
C40         C  0.55534271  0.85100668  0.09703097     0.01900
C41         C  0.52269333  0.83966877  0.07794179     0.01900
C42         C  0.48823331  0.84496303  0.09698455     0.01900
C43         C  0.48752582  0.87655424  0.86414971     0.01900
C44         C  0.51977641  0.89547705  0.85249375     0.01900
C45         C  0.55389447  0.87610848  0.85914234     0.01900
C46         C  0.55688333  0.85441104  0.89292101     0.01900
C47         C  0.52409992  0.84662810  0.91340064     0.01900
C48         C  0.48976290  0.85139483  0.89458200     0.01900
C49         C  0.12451236  0.44530930  0.86526462     0.01900
C50         C  0.10447746  0.47903336  0.86113284     0.01900
C51         C  0.12421669  0.51197521  0.87016845     0.01900
C52         C  0.15671402  0.51101990  0.89370855     0.01900
C53         C  0.16592599  0.47669369  0.91050626     0.01900
C54         C  0.15537884  0.44431799  0.89066681     0.01900
C55         C  0.11938073  0.43790536  0.11629700     0.01900
C56         C  0.15134852  0.44024221  0.09239329     0.01900
C57         C  0.15823188  0.47431922  0.07437602     0.01900
C58         C  0.14907982  0.50649280  0.09439393     0.01900
C59         C  0.11892362  0.50542742  0.12015135     0.01900
C60         C  0.09902563  0.47117733  0.12462683     0.01900
C61         C  0.91702946  0.50987825  0.12901222     0.01900
C62         C  0.93418639  0.47684296  0.14172328     0.01900
C63         C  0.91302968  0.44391913  0.13515943     0.01900
C64         C  0.89159203  0.44295266  0.10072081     0.01900
C65         C  0.88634392  0.47557296  0.07927117     0.01900
C66         C  0.89307950  0.50961110  0.09728116     0.01900
C67         C  0.91659039  0.51276029  0.86855531     0.01900
C68         C  0.93810909  0.47988229  0.86373435     0.01900
C69         C  0.91858414  0.44638621  0.87026140     0.01900
C70         C  0.88838212  0.44533492  0.89586004     0.01900
C71         C  0.87908051  0.47804339  0.91502451     0.01900
C72         C  0.88803645  0.51174887  0.89705754     0.01900
O73         O  0.23647022  0.91418607  0.69029277    -0.75680
O74         O  0.18215757  0.94624259  0.68853274    -0.54590
C75         C  0.20650494  0.92516671  0.67360862     0.78050
O76         O  0.22000025  0.90858868  0.88528559    -0.60280
O77         O  0.27461158  0.93582850  0.89953788    -0.53310
C78         C  0.24905460  0.91167352  0.90560704     0.70060
O79         O  0.13511361  0.90901462  0.79549254    -0.74840
O80         O  0.12050526  0.93674634  0.74160787    -0.55410
C81         C  0.11476078  0.91208302  0.76657137     0.76060
O82         O  0.32367813  0.90741925  0.78556926    -0.59990
O83         O  0.32745988  0.94140616  0.83880685    -0.53100
C84         C  0.33998498  0.91720171  0.81647105     0.72660
Zr85       Zr  0.26525849  0.92631327  0.75263872     2.54710
O86         O  0.26072634  0.85930631  0.75035289    -0.80550
O87         O  0.31561218  0.93052221  0.70805371    -0.93970
Zr88       Zr  0.18765964  0.92724348  0.83074340     2.64680
O89         O  0.18562578  0.86035842  0.82946675    -0.98920
O90         O  0.14044719  0.92923889  0.87879190    -0.80980
O91         O  0.20051163  0.92591083  0.76652931    -0.84340
O92         O  0.25131280  0.92468068  0.81730218    -2.19050
O93         O  0.32715606  0.05014831  0.78542222    -0.67730
O94         O  0.32911084  0.01472686  0.83698409    -0.52300
C95         C  0.34346435  0.03816106  0.81521080     0.71040
O96         O  0.13590480  0.04996102  0.79783180    -0.60640
O97         O  0.11789503  0.02122951  0.74515233    -0.52620
C98         C  0.11350207  0.04605779  0.77037781     0.72840
O99         O  0.21256323  0.02636586  0.89679054    -0.72030
O100        O  0.27425596  0.02427131  0.89717975    -0.50710
C101        C  0.24383783  0.03842330  0.90862633     0.74220
O102        O  0.23549570  0.04896330  0.69447796    -0.67360
O103        O  0.17596974  0.03051501  0.70119154    -0.54560
C104        C  0.20179262  0.04491588  0.68229346     0.72610
Zr105      Zr  0.26594921  0.03589905  0.75547742     2.77540
O106        O  0.26096627  0.10279485  0.75918711    -0.98110
O107        O  0.31387797  0.03744200  0.70815835    -0.78930
Zr108      Zr  0.18930018  0.03467629  0.83404068     2.70070
O109        O  0.20501045  0.09965838  0.83870728    -0.80180
O110        O  0.13641057  0.05018668  0.87240675    -0.99270
Zr111      Zr  0.17305204  0.98126576  0.74427175     2.21500
Zr112      Zr  0.27510684  0.97912120  0.84622296     2.11130
O113        O  0.25322084  0.03590496  0.82058012    -2.47950
O114        O  0.20146809  0.03576572  0.76965185    -0.79970
O115        O  0.28985568  0.98045308  0.78116107    -0.72170
O116        O  0.16015659  0.98148047  0.80877918    -2.33130
O117        O  0.23846581  0.98161192  0.72944128    -2.29330
O118        O  0.21146605  0.97981133  0.86047668    -0.73930
H119        H  0.26209990  0.90280713  0.82802459     0.78070
H120        H  0.13380995  0.98131864  0.81349681     0.79150
H121        H  0.26502714  0.05688144  0.83248143     0.81380
H122        H  0.24240827  0.98235200  0.70296291     0.78990
H123        H  0.11842457  0.94018564  0.86661778     0.42020
H124        H  0.14124597  0.03850130  0.89673519     0.40990
H125        H  0.20275345  0.10879942  0.81292060     0.40670
H126        H  0.27391491  0.10964048  0.78260894     0.38600
H127        H  0.32857879  0.01483469  0.71249602     0.41740
H128        H  0.30663047  0.94801228  0.68901197     0.36520
H129        H  0.23444443  0.85424150  0.74393108     0.42640
H130        H  0.20866912  0.85295276  0.81663748     0.39050
H131        H  0.27746682  0.11186175  0.73931260     0.43970
H132        H  0.31564335  0.90624235  0.69525280     0.42690
H133        H  0.18973071  0.85336017  0.85563762     0.42830
H134        H  0.13951320  0.07687088  0.87699339     0.43190
O135        O  0.08782614  0.19036510  0.69415513    -0.75680
O136        O  0.05349610  0.13796430  0.69358099    -0.54590
C137        C  0.07654034  0.15988245  0.67865314     0.78050
O138        O  0.08716832  0.18316822  0.88753766    -0.60280
O139        O  0.06370295  0.23878815  0.90144815    -0.53310
C140        C  0.08585670  0.21200705  0.90819403     0.70060
O141        O  0.08804739  0.09503074  0.79995229    -0.74840
O142        O  0.05896177  0.08014807  0.74626770    -0.55410
C143        C  0.08403640  0.07454754  0.77129311     0.76060
O144        O  0.09002517  0.28391996  0.78029076    -0.59990
O145        O  0.05929629  0.29019643  0.83541555    -0.53100
C146        C  0.08059915  0.30231051  0.80967884     0.72660
Zr147      Zr  0.07364234  0.22257906  0.75396549     2.54710
O148        O  0.14089048  0.21792563  0.75755179    -0.80550
O149        O  0.07300529  0.26858386  0.70491274    -0.93970
Zr150      Zr  0.06994873  0.14768809  0.83399588     2.64680
O151        O  0.13666170  0.14238557  0.83736646    -0.98920
O152        O  0.06737666  0.10115327  0.88242104    -0.80980
O153        O  0.07194638  0.15883531  0.76956654    -0.84340
O154        O  0.07565553  0.21070982  0.81916399    -2.19050
O155        O  0.94695477  0.28536698  0.79007925    -0.67730
O156        O  0.98226276  0.28693516  0.84234766    -0.52300
C157        C  0.95782496  0.30049141  0.82123114     0.71040
O158        O  0.94374598  0.09552954  0.80376976    -0.60640
O159        O  0.97182796  0.08065047  0.74953603    -0.52620
C160        C  0.94827892  0.07436267  0.77556318     0.72840
O161        O  0.97735921  0.17319092  0.89643166    -0.72030
O162        O  0.97735055  0.23407996  0.89880468    -0.50710
C163        C  0.96391064  0.20302420  0.90917545     0.74220
O164        O  0.94543365  0.19621389  0.69556431    -0.67360
O165        O  0.97687350  0.14172816  0.69409970    -0.54560
C166        C  0.95430331  0.16500811  0.67999436     0.72610
Zr167      Zr  0.96341086  0.22691976  0.75596434     2.77540
O168        O  0.89589421  0.22626626  0.75583796    -0.98110
O169        O  0.96898020  0.27541966  0.70983722    -0.78930
Zr170      Zr  0.96198494  0.15138931  0.83484911     2.70070
O171        O  0.89920936  0.17543987  0.83478928    -0.80180
O172        O  0.93998967  0.10413268  0.87728437    -0.99270
Zr173      Zr  0.01544436  0.13312250  0.74684371     2.21500
Zr174      Zr  0.02185037  0.23657520  0.84711790     2.11130
O175        O  0.96410634  0.21493642  0.82113277    -2.47950
O176        O  0.96108974  0.16251709  0.77019984    -0.79970
O177        O  0.02028581  0.24957556  0.78161086    -0.72170
O178        O  0.01470140  0.12094061  0.81126956    -2.33130
O179        O  0.01697360  0.19767416  0.73100917    -2.29330
O180        O  0.01791027  0.17316585  0.86173938    -0.73930
H181        H  0.09805492  0.22130008  0.82963977     0.78070
H182        H  0.01416736  0.09479671  0.81631826     0.79150
H183        H  0.94355133  0.22719372  0.83296480     0.81380
H184        H  0.01669088  0.20099631  0.70440961     0.78990
H185        H  0.05809868  0.07857306  0.86974946     0.42020
H186        H  0.95563445  0.08231635  0.87207142     0.40990
H187        H  0.88930589  0.16902562  0.80982855     0.40670
H188        H  0.88891626  0.23611020  0.78056220     0.38600
H189        H  0.99023996  0.29060047  0.71857093     0.41740
H190        H  0.05492150  0.25912030  0.68630234     0.36520
H191        H  0.14576591  0.19108365  0.75869372     0.42640
H192        H  0.14587332  0.16748479  0.83174933     0.39050
H193        H  0.88885010  0.24597352  0.73824918     0.43970
H194        H  0.09741817  0.26615641  0.69270529     0.42690
H195        H  0.14118032  0.13934552  0.86428160     0.42830
H196        H  0.94808656  0.11201927  0.90241790     0.43190
O197        O  0.09439476  0.75119534  0.30621085    -0.75680
O198        O  0.05929022  0.80319017  0.31508050    -0.54590
C199        C  0.08279768  0.77861174  0.32617216     0.78050
O200        O  0.09705644  0.77932553  0.11210575    -0.60280
O201        O  0.06751106  0.72534831  0.09833689    -0.53310
C202        C  0.09141434  0.75097255  0.09118440     0.70060
O203        O  0.09347592  0.85827916  0.20882858    -0.74840
O204        O  0.06537126  0.87246298  0.26258698    -0.55410
C205        C  0.08970654  0.87912993  0.23745376     0.76060
O206        O  0.09321844  0.66604516  0.21054674    -0.59990
O207        O  0.05928331  0.66542270  0.15693671    -0.53100
C208        C  0.08278434  0.65101068  0.17919788     0.72660
Zr209      Zr  0.07792674  0.72508843  0.24434214     2.54710
O210        O  0.14533219  0.72776849  0.24255615    -0.80550
O211        O  0.07409367  0.67462942  0.28855956    -0.93970
Zr212      Zr  0.07830089  0.80587318  0.17089029     2.64680
O213        O  0.14513792  0.80401664  0.17470943    -0.98920
O214        O  0.08026860  0.85724895  0.12785530    -0.80980
O215        O  0.07876826  0.79048406  0.23455257    -0.84340
O216        O  0.07959026  0.74166048  0.18048090    -2.19050
O217        O  0.95548867  0.66730134  0.21005796    -0.67730
O218        O  0.98197160  0.67085867  0.15302801    -0.52300
C219        C  0.96274551  0.65428482  0.17722891     0.71040
O220        O  0.95408413  0.85705103  0.20452843    -0.60640
O221        O  0.98150830  0.87248453  0.25878363    -0.52620
C222        C  0.95711459  0.87803475  0.23298949     0.72840
O223        O  0.97776195  0.78682750  0.10356362    -0.72030
O224        O  0.97930314  0.72551090  0.09980182    -0.50710
C225        C  0.96580693  0.75655276  0.08949749     0.74220
O226        O  0.95367806  0.75524954  0.30486869    -0.67360
O227        O  0.97133507  0.81503751  0.29904119    -0.54560
C228        C  0.95684018  0.78873031  0.31737765     0.72610
Zr229      Zr  0.96828326  0.72633493  0.24350329     2.77540
O230        O  0.90084095  0.72850509  0.24093610    -0.98110
O231        O  0.96839015  0.67750950  0.28964829    -0.78930
Zr232      Zr  0.96979579  0.80475773  0.16801484     2.70070
O233        O  0.90515410  0.78570725  0.16430004    -0.80180
O234        O  0.94671257  0.85495961  0.13077351    -0.99270
Zr235      Zr  0.02357451  0.81791376  0.25902199     2.21500
Zr236      Zr  0.02417262  0.72043509  0.15125307     2.11130
O237        O  0.96778800  0.74121463  0.17895831    -2.47950
O238        O  0.96886119  0.79086840  0.23201995    -0.79970
O239        O  0.02301531  0.70271093  0.21555805    -0.72170
O240        O  0.02361919  0.83233639  0.19441294    -2.33130
O241        O  0.02322764  0.75190280  0.27027455    -2.29330
O242        O  0.02480750  0.78431063  0.14019511    -0.73930
H243        H  0.10109070  0.73086080  0.16885935     0.78070
H244        H  0.02367933  0.85867148  0.19038535     0.79150
H245        H  0.94644475  0.73027783  0.16677608     0.81380
H246        H  0.02255889  0.74662924  0.29652043     0.78990
H247        H  0.05476827  0.85863738  0.11759573     0.42020
H248        H  0.96500950  0.85803046  0.11061993     0.40990
H249        H  0.89722188  0.78408699  0.19053246     0.40670
H250        H  0.89402830  0.71403697  0.21844018     0.38600
H251        H  0.99083174  0.66289006  0.28401250     0.41740
H252        H  0.05806583  0.68401131  0.30875531     0.36520
H253        H  0.15126415  0.75445977  0.24346668     0.42640
H254        H  0.15164120  0.77792489  0.16984217     0.39050
H255        H  0.89275404  0.71295768  0.26193257     0.43970
H256        H  0.09915853  0.67332332  0.29986902     0.42690
H257        H  0.15223452  0.81709858  0.15187567     0.42830
H258        H  0.92469465  0.84383365  0.11855884     0.43190
O259        O  0.21223575  0.86821432  0.05970568    -0.75680
O260        O  0.27355917  0.87231190  0.04786695    -0.54590
C261        C  0.24417955  0.88294259  0.06501556     0.78050
O262        O  0.23715814  0.66571606  0.06243442    -0.60280
O263        O  0.17823890  0.67021586  0.04071745    -0.53310
C264        C  0.20403670  0.65242055  0.05652313     0.70060
O265        O  0.32738459  0.75576692  0.07038192    -0.74840
O266        O  0.33330451  0.80993295  0.03827235    -0.55410
C267        C  0.34559992  0.78474356  0.06042176     0.76060
O268        O  0.12763427  0.78173629  0.04746776    -0.59990
O269        O  0.12700605  0.72023111  0.04216105    -0.53100
C270        C  0.11579755  0.75020710  0.05793102     0.72660
Zr271      Zr  0.19042575  0.80533652  0.05315319     2.54710
O272        O  0.20502220  0.79157965  0.11761931    -0.80550
O273        O  0.14333383  0.84400300  0.08133089    -0.93970
Zr274      Zr  0.26763378  0.72762879  0.05238512     2.64680
O275        O  0.26443497  0.72685556  0.11994518    -0.98920
O276        O  0.31577210  0.68076030  0.04932234    -0.80980
O277        O  0.25458046  0.79273516  0.05517486    -0.84340
O278        O  0.20348391  0.74141673  0.05314438    -2.19050
O279        O  0.12687581  0.78086931  0.95297203    -0.67730
O280        O  0.12645604  0.71940947  0.95217545    -0.52300
C281        C  0.11471229  0.75027053  0.93967045     0.71040
O282        O  0.33062973  0.76735490  0.93068863    -0.60640
O283        O  0.32639494  0.82420859  0.95725407    -0.52620
C284        C  0.34377628  0.80000354  0.93855087     0.72840
O285        O  0.24472466  0.67294279  0.92336635    -0.72030
O286        O  0.19231446  0.66379563  0.95783475    -0.50710
C287        C  0.21680375  0.65335164  0.93398317     0.74220
O288        O  0.22315774  0.85936734  0.92904340    -0.67360
O289        O  0.27529904  0.87708992  0.95929459    -0.54560
C290        C  0.25023700  0.88176309  0.93395053     0.72610
Zr291      Zr  0.18914179  0.80499181  0.94390353     2.77540
O292        O  0.18378539  0.78993225  0.87815530    -0.98110
O293        O  0.14809676  0.85562717  0.92836058    -0.78930
Zr294      Zr  0.27096526  0.73324276  0.94220698     2.70070
O295        O  0.26927021  0.73894900  0.87481141    -0.80180
O296        O  0.32150051  0.68884435  0.94221287    -0.99270
Zr297      Zr  0.27773888  0.82249696  0.00096921     2.21500
Zr298      Zr  0.17809385  0.71752614  0.99627405     2.11130
O299        O  0.20525574  0.74220927  0.94110072    -2.47950
O300        O  0.25417247  0.79632982  0.94422122    -0.79970
O301        O  0.16337267  0.78104944  0.99828274    -0.72170
O302        O  0.29311348  0.75766262  0.99922168    -2.33130
O303        O  0.21281460  0.83355332  0.99855145    -2.29330
O304        O  0.24344874  0.70488457  0.99537706    -0.73930
H305        H  0.19217382  0.73029540  0.07462160     0.78070
H306        H  0.31957824  0.75394486  0.99909749     0.79150
H307        H  0.19463648  0.73014381  0.91951379     0.81380
H308        H  0.20699391  0.85947412  0.99684429     0.78990
H309        H  0.33067706  0.68744419  0.02732957     0.42020
H310        H  0.31255507  0.66821528  0.95771715     0.40990
H311        H  0.27951398  0.76382846  0.86995678     0.40670
H312        H  0.20890801  0.78204453  0.87069025     0.38600
H313        H  0.14134229  0.86657036  0.95268495     0.41740
H314        H  0.13792155  0.86315559  0.06255851     0.36520
H315        H  0.22444312  0.80978434  0.12460524     0.42640
H316        H  0.24069613  0.71428763  0.12545504     0.39050
H317        H  0.16844053  0.76729635  0.87657467     0.43970
H318        H  0.15645555  0.85726445  0.10160247     0.42690
H319        H  0.28372894  0.70898452  0.12749874     0.42830
H320        H  0.32179644  0.67870340  0.91657799     0.43190
O321        O  0.09180339  0.09967980  0.20856874    -0.75680
O322        O  0.06036642  0.08192476  0.25926992    -0.54590
C323        C  0.08698886  0.07785327  0.23592187     0.78050
O324        O  0.08526862  0.28656995  0.21964969    -0.60280
O325        O  0.05180334  0.29130534  0.16563329    -0.53310
C326        C  0.07592379  0.30302330  0.18902997     0.70060
O327        O  0.08356193  0.19370416  0.30908004    -0.74840
O328        O  0.04792234  0.14148372  0.31239394    -0.55410
C329        C  0.07239540  0.16378444  0.32528705     0.76060
O330        O  0.08838409  0.18057323  0.11706368    -0.59990
O331        O  0.06290391  0.23639098  0.10570296    -0.53100
C332        C  0.08594686  0.21003185  0.09808885     0.72660
Zr333      Zr  0.07268719  0.15183120  0.17328962     2.54710
O334        O  0.13915687  0.16272096  0.17752146    -0.80550
O335        O  0.08175519  0.10311204  0.12732755    -0.93970
Zr336      Zr  0.06727973  0.22794215  0.25139658     2.64680
O337        O  0.13463198  0.23019683  0.25601871    -0.98920
O338        O  0.05811930  0.27487609  0.29920174    -0.80980
O339        O  0.07069989  0.16362003  0.23723098    -0.84340
O340        O  0.07106126  0.21546253  0.18664289    -2.19050
O341        O  0.97539517  0.17213239  0.10322069    -0.67730
O342        O  0.97385826  0.23354030  0.10366938    -0.52300
C343        C  0.96227064  0.20246310  0.09090603     0.71040
O344        O  0.95073603  0.19197018  0.31034700    -0.60640
O345        O  0.96376806  0.13295902  0.29738951    -0.52620
C346        C  0.95524951  0.15796914  0.32059233     0.72840
O347        O  0.94272607  0.28157100  0.21815777    -0.72030
O348        O  0.97598693  0.29016805  0.16476861    -0.50710
C349        C  0.95235304  0.30044156  0.18931659     0.74220
O350        O  0.94822238  0.09098188  0.19538725    -0.67360
O351        O  0.97700659  0.07812666  0.25014745    -0.54560
C352        C  0.95394447  0.07058149  0.22385609     0.72610
Zr353      Zr  0.96455890  0.14781757  0.16510421     2.77540
O354        O  0.89906775  0.15952231  0.15637660    -0.98110
O355        O  0.95495367  0.09659071  0.12214828    -0.78930
Zr356      Zr  0.95757449  0.22149360  0.24730427     2.70070
O357        O  0.89135498  0.20956558  0.24073067    -0.80180
O358        O  0.94558911  0.26750157  0.29541762    -0.99270
Zr359      Zr  0.01517672  0.13330703  0.25598437     2.21500
Zr360      Zr  0.01602882  0.23746813  0.15710764     2.11130
O361        O  0.96015712  0.21107568  0.18143704    -2.47950
O362        O  0.95975136  0.15807945  0.22999678    -0.79970
O363        O  0.01965444  0.17384283  0.14235513    -0.72170
O364        O  0.01322622  0.19780888  0.27315940    -2.33130
O365        O  0.01838994  0.12129534  0.19144197    -2.29330
O366        O  0.01208925  0.24992214  0.22300432    -0.73930
H367        H  0.09284684  0.22718945  0.17655321     0.78070
H368        H  0.01342294  0.20144723  0.29973094     0.79150
H369        H  0.93898958  0.22243645  0.16970546     0.81380
H370        H  0.01995548  0.09519404  0.18604700     0.78990
H371        H  0.03434219  0.26815349  0.31102885     0.42020
H372        H  0.96303433  0.28796315  0.29022766     0.40990
H373        H  0.88821934  0.18349103  0.24816950     0.40670
H374        H  0.89724822  0.18391159  0.14436851     0.38600
H375        H  0.98019217  0.08714857  0.11720783     0.41740
H376        H  0.05797820  0.08938211  0.12665500     0.36520
H377        H  0.14465185  0.16295773  0.20453006     0.42640
H378        H  0.14310462  0.23482752  0.23033421     0.39050
H379        H  0.89298388  0.14190285  0.13620987     0.43970
H380        H  0.09957614  0.08586928  0.13883855     0.42690
H381        H  0.14000467  0.25347952  0.26961777     0.42830
H382        H  0.92076230  0.27748901  0.28937850     0.43190
O383        O  0.13928095  0.90512772  0.20985532    -0.75680
O384        O  0.12326298  0.93539842  0.26227997    -0.54590
C385        C  0.11832806  0.90930058  0.23781396     0.78050
O386        O  0.32804679  0.91222403  0.21407124    -0.60280
O387        O  0.32822776  0.94184442  0.15810380    -0.53310
C388        C  0.34235175  0.91978536  0.18185194     0.70060
O389        O  0.23748808  0.90664496  0.30581234    -0.74840
O390        O  0.18386848  0.93968620  0.31326114    -0.55410
C391        C  0.20701999  0.91474688  0.32301963     0.76060
O392        O  0.21662411  0.90507313  0.11744219    -0.59990
O393        O  0.26970935  0.93477657  0.10186689    -0.53100
C394        C  0.24431137  0.91009777  0.09605541     0.72660
Zr395      Zr  0.19023613  0.92429450  0.17479867     2.54710
O396        O  0.20048846  0.85844074  0.18069078    -0.80550
O397        O  0.13838030  0.91804784  0.13148004    -0.93970
Zr398      Zr  0.27022757  0.92842728  0.24906978     2.64680
O399        O  0.27458143  0.86144089  0.25111194    -0.98920
O400        O  0.31782738  0.93919699  0.29630939    -0.80980
O401        O  0.20497253  0.92699721  0.23854653    -0.84340
O402        O  0.25437756  0.92491310  0.18485103    -2.19050
O403        O  0.21558238  0.04938459  0.11534416    -0.67730
O404        O  0.27057320  0.02245823  0.10159236    -0.52300
C405        C  0.24414586  0.04538892  0.09482579     0.71040
O406        O  0.24043551  0.05754811  0.30360942    -0.60640
O407        O  0.18845321  0.02284309  0.31514518    -0.52620
C408        C  0.21283931  0.04764098  0.32386902     0.72840
O409        O  0.32793522  0.05226058  0.21469255    -0.72030
O410        O  0.32815582  0.01681510  0.16270159    -0.50710
C411        C  0.34321578  0.04045578  0.18439961     0.74220
O412        O  0.13508511  0.05004085  0.20663451    -0.67360
O413        O  0.12266939  0.02519624  0.26247650    -0.54560
C414        C  0.11578398  0.04830832  0.23613429     0.72610
Zr415      Zr  0.18648868  0.03023163  0.17132465     2.77540
O416        O  0.17796778  0.09620965  0.17078746    -0.98110
O417        O  0.13686264  0.02298079  0.12560871    -0.78930
Zr418      Zr  0.26790207  0.03687725  0.24497385     2.70070
O419        O  0.26457728  0.10352790  0.23772728    -0.80180
O420        O  0.31531768  0.03646356  0.29348649    -0.99270
Zr421      Zr  0.17599434  0.98138974  0.26282570     2.21500
Zr422      Zr  0.27457892  0.97942415  0.15436855     2.11130
O423        O  0.25107801  0.03497745  0.18103139    -2.47950
O424        O  0.20240534  0.03497007  0.23483573    -0.79970
O425        O  0.21014748  0.97688949  0.14313925    -0.72170
O426        O  0.24260621  0.98306134  0.27348306    -2.33130
O427        O  0.16094961  0.97749717  0.19843346    -2.29330
O428        O  0.29241737  0.98203107  0.21882744    -0.73930
H429        H  0.26528147  0.90317823  0.17379143     0.78070
H430        H  0.24784489  0.98387328  0.29983112     0.79150
H431        H  0.26118587  0.05655651  0.16911225     0.81380
H432        H  0.13444370  0.97658560  0.19441702     0.78990
H433        H  0.30407291  0.94670720  0.31885087     0.42020
H434        H  0.33451928  0.01933180  0.28416389     0.40990
H435        H  0.23775884  0.10916902  0.23890150     0.40670
H436        H  0.20351601  0.10611732  0.17253747     0.38600
H437        H  0.14780654  0.00789040  0.10544616     0.41740
H438        H  0.14592264  0.93230821  0.10938203     0.36520
H439        H  0.20202385  0.85417702  0.20781587     0.42640
H440        H  0.27738616  0.85363781  0.22484619     0.39050
H441        H  0.16951524  0.10114485  0.14510940     0.43970
H442        H  0.11809919  0.93271994  0.14255818     0.42690
H443        H  0.29908269  0.85661983  0.26264168     0.42830
H444        H  0.32700976  0.06118812  0.29231621     0.43190
O445        O  0.33055427  0.18846414  0.06984556    -0.75680
O446        O  0.33009198  0.13511317  0.03618951    -0.54590
C447        C  0.34552325  0.15783082  0.05889238     0.78050
O448        O  0.13525402  0.18076527  0.07091921    -0.60280
O449        O  0.12413114  0.23755671  0.04822982    -0.53310
C450        C  0.11578952  0.21030810  0.06938307     0.70060
O451        O  0.21153428  0.08512104  0.05785836    -0.74840
O452        O  0.27288540  0.08236043  0.04626669    -0.55410
C453        C  0.24370123  0.07152537  0.06361408     0.76060
O454        O  0.24767180  0.28339424  0.07347688    -0.59990
O455        O  0.19191933  0.29056965  0.04352161    -0.53100
C456        C  0.21868798  0.30220951  0.06449360     0.72660
Zr457      Zr  0.27145753  0.22178105  0.05717703     2.54710
O458        O  0.27045993  0.21908974  0.12478304    -0.80550
O459        O  0.32152187  0.26702045  0.05548705    -0.93970
Zr460      Zr  0.19097788  0.14810187  0.05587226     2.64680
O461        O  0.20759879  0.15248023  0.12142576    -0.98920
O462        O  0.14195558  0.10620541  0.07480520    -0.80980
O463        O  0.25547820  0.15804079  0.05668305    -0.84340
O464        O  0.20591950  0.21147280  0.05926298    -2.19050
O465        O  0.23370190  0.28328180  0.92926906    -0.67730
O466        O  0.18260484  0.28847313  0.96577871    -0.52300
C467        C  0.20347181  0.29981962  0.93982446     0.71040
O468        O  0.21471412  0.09237648  0.92595607    -0.60640
O469        O  0.26858440  0.07906044  0.95640905    -0.52620
C470        C  0.24286856  0.07175892  0.93226586     0.72840
O471        O  0.13580678  0.18311501  0.93177723    -0.72030
O472        O  0.12280252  0.23622105  0.96194674    -0.50710
C473        C  0.11568433  0.21138530  0.93691868     0.74220
O474        O  0.32680340  0.19250699  0.92998409    -0.67360
O475        O  0.32571590  0.13614999  0.95767385    -0.54560
C476        C  0.34108768  0.16034819  0.93708387     0.72610
Zr477      Zr  0.26818395  0.22574455  0.94726840     2.77540
O478        O  0.26913221  0.22566692  0.87958455    -0.98110
O479        O  0.31513935  0.27375849  0.95419762    -0.78930
Zr480      Zr  0.18986560  0.15062781  0.94648394     2.70070
O481        O  0.20195259  0.16382047  0.88146034    -0.80180
O482        O  0.13832444  0.10765825  0.93857516    -0.99270
Zr483      Zr  0.27546986  0.13190193  0.99946674     2.21500
Zr484      Zr  0.17737098  0.23702351  0.00519679     2.11130
O485        O  0.20322915  0.21408765  0.94838970    -2.47950
O486        O  0.25374177  0.16145316  0.94495993    -0.79970
O487        O  0.24324156  0.24894345  0.00390266    -0.72170
O488        O  0.21122905  0.12106022  0.99951492    -2.33130
O489        O  0.29304054  0.19616504  0.00065754    -2.29330
O490        O  0.16316182  0.17310122  0.00230883    -0.73930
H491        H  0.19582194  0.22272130  0.08140131     0.78070
H492        H  0.20484973  0.09533686  0.99629078     0.79150
H493        H  0.19184794  0.22560979  0.92707571     0.81380
H494        H  0.31966055  0.19889868  0.00013036     0.78990
H495        H  0.12924655  0.09918079  0.05130143     0.42020
H496        H  0.14629101  0.08504658  0.95164104     0.40990
H497        H  0.22853064  0.15825130  0.87775768     0.40670
H498        H  0.24372832  0.23287875  0.87205023     0.38600
H499        H  0.30498246  0.29077056  0.97320906     0.41740
H500        H  0.33979220  0.25668656  0.03785272     0.36520
H501        H  0.28560666  0.19725010  0.13109936     0.42640
H502        H  0.23426503  0.14627365  0.12303853     0.39050
H503        H  0.28476802  0.24717925  0.87315183     0.43970
H504        H  0.33371433  0.26527842  0.08015365     0.42690
H505        H  0.20619735  0.17893073  0.12818823     0.42830
H506        H  0.11826591  0.11762444  0.95436637     0.43190
O507        O  0.92107679  0.02674364  0.19142540    -0.75680
O508        O  0.91778292  0.02309124  0.25373490    -0.54590
C509        C  0.93077479  0.03741247  0.22383376     0.78050
O510        O  0.71740467  0.04122559  0.21623780    -0.60280
O511        O  0.72237113  0.02346229  0.15594817    -0.53310
C512        C  0.70408923  0.03693160  0.18311002     0.70060
O513        O  0.81013746  0.05257742  0.30145991    -0.74840
O514        O  0.86174841  0.01685275  0.30987856    -0.55410
C515        C  0.83842828  0.04153962  0.32033490     0.76060
O516        O  0.82431028  0.04155277  0.11200068    -0.59990
O517        O  0.76779211  0.01744060  0.09932622    -0.53100
C518        C  0.79442122  0.03985326  0.09240617     0.72660
Zr519      Zr  0.85935753  0.02439766  0.16626937     2.54710
O520        O  0.86558101  0.09073694  0.17334568    -0.80550
O521        O  0.90249863  0.02452057  0.11437827    -0.93970
Zr522      Zr  0.78023127  0.03380996  0.24282268     2.64680
O523        O  0.78262604  0.10002283  0.23203363    -0.98920
O524        O  0.73577794  0.04176348  0.29287441    -0.80980
O525        O  0.84509375  0.03086237  0.23016833    -0.84340
O526        O  0.79568319  0.03149209  0.17887343    -2.19050
O527        O  0.82160829  0.89900042  0.11631857    -0.67730
O528        O  0.77194716  0.93405904  0.10006877    -0.52300
C529        C  0.79556152  0.90807404  0.09405655     0.71040
O530        O  0.80571512  0.90343627  0.30492865    -0.60640
O531        O  0.85923013  0.93683830  0.30880021    -0.52620
C532        C  0.83695439  0.91234171  0.32089943     0.72840
O533        O  0.71253264  0.91030388  0.21411161    -0.72030
O534        O  0.71253489  0.94445945  0.16144983    -0.50710
C535        C  0.69756292  0.92136413  0.18313203     0.74220
O536        O  0.90443256  0.89990254  0.20577430    -0.67360
O537        O  0.92265947  0.93325435  0.25594593    -0.54560
C538        C  0.92696322  0.90629059  0.23268550     0.72610
Zr539      Zr  0.84962567  0.91697578  0.17333784     2.77540
O540        O  0.84122788  0.85296369  0.19087920    -0.98110
O541        O  0.89477675  0.90724055  0.12469138    -0.78930
Zr542      Zr  0.77217735  0.92482148  0.24778743     2.70070
O543        O  0.76687476  0.85781290  0.24726150    -0.80180
O544        O  0.72660956  0.93501256  0.29635996    -0.99270
Zr545      Zr  0.86850807  0.97599720  0.25732064     2.21500
Zr546      Zr  0.76847511  0.97690881  0.15348485     2.11130
O547        O  0.78561623  0.92076160  0.18315189    -2.47950
O548        O  0.83703947  0.92147450  0.23674155    -0.79970
O549        O  0.83213114  0.97077278  0.14132566    -0.72170
O550        O  0.80292932  0.97901090  0.27048817    -2.33130
O551        O  0.88155465  0.96967337  0.19336484    -2.29330
O552        O  0.75207639  0.97969262  0.21802287    -0.73930
H553        H  0.78612621  0.05351898  0.16734964     0.78070
H554        H  0.79880253  0.98026458  0.29693714     0.79150
H555        H  0.77314692  0.89974835  0.17202345     0.81380
H556        H  0.90749163  0.96545356  0.18849413     0.78990
H557        H  0.73540318  0.01764465  0.30563475     0.42020
H558        H  0.70741922  0.95058056  0.28453430     0.40990
H559        H  0.79246140  0.84891363  0.25157319     0.40670
H560        H  0.81826856  0.84467047  0.17812571     0.38600
H561        H  0.90062928  0.93232662  0.11565390     0.41740
H562        H  0.88878627  0.01261492  0.09356230     0.36520
H563        H  0.86626434  0.09526062  0.20051917     0.42640
H564        H  0.76427557  0.10434133  0.21194807     0.39050
H565        H  0.86173355  0.83990400  0.17848173     0.43970
H566        H  0.92175613  0.00630384  0.12111788     0.42690
H567        H  0.77121515  0.11103990  0.25446624     0.42830
H568        H  0.71445895  0.91068919  0.29943331     0.43190
O569        O  0.82129870  0.09048517  0.06849960    -0.75680
O570        O  0.76572744  0.07731722  0.04242300    -0.54590
C571        C  0.79283194  0.07001775  0.06482331     0.78050
O572        O  0.81047580  0.28410596  0.06453897    -0.60280
O573        O  0.86491622  0.28396336  0.03255707    -0.53310
C574        C  0.84186815  0.29865016  0.05486462     0.70060
O575        O  0.71704470  0.19773037  0.07103295    -0.74840
O576        O  0.70983078  0.14393327  0.03800631    -0.55410
C577        C  0.69843502  0.16868497  0.06108645     0.76060
O578        O  0.91043142  0.17050042  0.07163956    -0.59990
O579        O  0.92122515  0.22479756  0.04222108    -0.53100
C580        C  0.92975290  0.19951895  0.06595409     0.72660
Zr581      Zr  0.85075424  0.14660830  0.05470737     2.54710
O582        O  0.83081809  0.16027780  0.11787895    -0.80550
O583        O  0.89580599  0.10037264  0.07282979    -0.93970
Zr584      Zr  0.77688780  0.22515275  0.05179191     2.64680
O585        O  0.77894411  0.22759407  0.11944995    -0.98920
O586        O  0.73067582  0.27357968  0.04563822    -0.80980
O587        O  0.78706696  0.16012383  0.05432232    -0.84340
O588        O  0.84114904  0.21041368  0.05394736    -2.19050
O589        O  0.91054873  0.17069390  0.92577447    -0.67730
O590        O  0.92219783  0.22494578  0.95605383    -0.52300
C591        C  0.93033552  0.19976968  0.93213304     0.71040
O592        O  0.71513696  0.19293084  0.93065491    -0.60640
O593        O  0.72017720  0.13337474  0.94876637    -0.52620
C594        C  0.70169796  0.16003087  0.93521974     0.72840
O595        O  0.80814464  0.28362189  0.93403076    -0.72030
O596        O  0.86715116  0.27941037  0.95569902    -0.50710
C597        C  0.84109881  0.29731808  0.94011657     0.74220
O598        O  0.81400501  0.09031991  0.92998932    -0.67360
O599        O  0.76027787  0.07595502  0.95772242    -0.54560
C600        C  0.78522281  0.06980824  0.93298171     0.72610
Zr601      Zr  0.85309851  0.14155362  0.94599996     2.77540
O602        O  0.84775756  0.13230764  0.87971679    -0.98110
O603        O  0.89743234  0.09132390  0.95070440    -0.78930
Zr604      Zr  0.77751859  0.22142681  0.94201333     2.70070
O605        O  0.78480576  0.21470931  0.87507102    -0.80180
O606        O  0.72973515  0.26777280  0.93230493    -0.99270
Zr607      Zr  0.76337289  0.13085751  0.99941783     2.21500
Zr608      Zr  0.86901262  0.22897527  0.99738470     2.11130
O609        O  0.84165442  0.20539046  0.94158422    -2.47950
O610        O  0.78955479  0.15682226  0.94446310    -0.79970
O611        O  0.88093337  0.16543708  0.00018166    -0.72170
O612        O  0.75126807  0.19669555  0.99746237    -2.33130
O613        O  0.82780871  0.11700308  0.00064849    -2.29330
O614        O  0.80488131  0.24672936  0.99655765    -0.73930
H615        H  0.85297899  0.22199692  0.07521659     0.78070
H616        H  0.72494679  0.20140613  0.99744113     0.79150
H617        H  0.85330364  0.21550471  0.91977542     0.81380
H618        H  0.83224143  0.09073092  0.00102868     0.78990
H619        H  0.71683760  0.26721933  0.02259356     0.42020
H620        H  0.73442461  0.28666981  0.95180907     0.40990
H621        H  0.77419328  0.19008859  0.86923085     0.40670
H622        H  0.84275435  0.15721203  0.86983879     0.38600
H623        H  0.91078926  0.09604024  0.97441133     0.41740
H624        H  0.89320922  0.08040363  0.05404457     0.36520
H625        H  0.81741294  0.13790343  0.12605867     0.42640
H626        H  0.80424663  0.23647361  0.12567151     0.39050
H627        H  0.87323011  0.12617278  0.87208804     0.43970
H628        H  0.88582948  0.08982915  0.09599777     0.42690
H629        H  0.76258931  0.24848461  0.12609264     0.42830
H630        H  0.73650528  0.27996631  0.90873878     0.43190
O631        O  0.09198397  0.85959631  0.79215120    -0.75680
O632        O  0.06046765  0.87713248  0.74130662    -0.54590
C633        C  0.08659780  0.88193002  0.76542871     0.78050
O634        O  0.08900379  0.66941734  0.78256347    -0.60280
O635        O  0.05942565  0.66835690  0.83841443    -0.53310
C636        C  0.08060217  0.65417564  0.81404345     0.70060
O637        O  0.09684687  0.76368872  0.69543030    -0.74840
O638        O  0.06320252  0.81653549  0.69427951    -0.55410
C639        C  0.08807695  0.79518547  0.68090983     0.76060
O640        O  0.09595051  0.78171145  0.88747271    -0.59990
O641        O  0.06755015  0.72643390  0.89772273    -0.53100
C642        C  0.09055745  0.75251071  0.90661223     0.72660
Zr643      Zr  0.07919940  0.80623446  0.82785342     2.54710
O644        O  0.14390461  0.79471339  0.81339403    -0.80550
O645        O  0.09523968  0.85556737  0.87092144    -0.93970
Zr646      Zr  0.07451817  0.72928834  0.75119225     2.64680
O647        O  0.14194195  0.72570332  0.75104145    -0.98920
O648        O  0.06512814  0.68424235  0.70140911    -0.80980
O649        O  0.07512483  0.79381147  0.76400028    -0.84340
O650        O  0.07838150  0.74243687  0.81611402    -2.19050
O651        O  0.97742642  0.78360536  0.89737350    -0.67730
O652        O  0.97828586  0.72215461  0.89625705    -0.52300
C653        C  0.96466629  0.75255626  0.90821513     0.71040
O654        O  0.94703232  0.75775293  0.69567622    -0.60640
O655        O  0.98035587  0.81105938  0.68867568    -0.52620
C656        C  0.95772724  0.78594759  0.67681821     0.72360
O657        O  0.95188565  0.67262769  0.78674848    -0.72030
O658        O  0.98692937  0.66585825  0.83952621    -0.50710
C659        C  0.96303729  0.65451372  0.81550173     0.74220
O660        O  0.95222131  0.86292529  0.80277831    -0.67360
O661        O  0.97450957  0.87369250  0.74510672    -0.54560
C662        C  0.95293594  0.88127965  0.77252732     0.72610
Zr663      Zr  0.97125611  0.80905321  0.83528537     2.77540
O664        O  0.90475635  0.80308513  0.84083398    -0.98110
O665        O  0.96749304  0.85979825  0.87964326    -0.78930
Zr666      Zr  0.96461774  0.73205730  0.75645797     2.70070
O667        O  0.89769160  0.73689633  0.76337246    -0.80180
O668        O  0.96045521  0.68432364  0.70857776    -0.99270
Zr669      Zr  0.01917091  0.82226283  0.74286034     2.21500
Zr670      Zr  0.02314345  0.72117841  0.84546077     2.11130
O671        O  0.96653035  0.74542566  0.82134463    -2.47950
O672        O  0.96543110  0.79630648  0.77067573    -0.79970
O673        O  0.02656988  0.78476843  0.85924782    -0.72170
O674        O  0.01887051  0.75705020  0.72873144    -2.33130
O675        O  0.02407522  0.83534488  0.80771719    -2.29330
O676        O  0.02018941  0.70653084  0.78035585    -0.73930
H677        H  0.10012375  0.73113735  0.82689577     0.78070
H678        H  0.01830094  0.75274684  0.70223400     0.79150
H679        H  0.94533164  0.73439709  0.83325476     0.81380
H680        H  0.02483035  0.86157865  0.81267828     0.78990
H681        H  0.05750980  0.69892680  0.67956141     0.42020
H682        H  0.97925215  0.66580372  0.71579713     0.40990
H683        H  0.89321099  0.76348100  0.76793212     0.40670
H684        H  0.90087351  0.77795008  0.85061836     0.38600
H685        H  0.99361400  0.86718147  0.88412070     0.41740
H686        H  0.07719205  0.87539893  0.86560037     0.36520
H687        H  0.14700225  0.80329143  0.78752054     0.42640
H688        H  0.14886956  0.71876634  0.77673276     0.39050
H689        H  0.89893937  0.81992702  0.86172542     0.43970
H690        H  0.11904503  0.86489458  0.86124554     0.42690
H691        H  0.14742318  0.70348238  0.73589707     0.42830
H692        H  0.93630176  0.67201124  0.71278140     0.43190
O693        O  0.79971777  0.03831606  0.68787482    -0.75680
O694        O  0.85720850  0.01189491  0.68974522    -0.54590
C695        C  0.83142533  0.02994645  0.67335827     0.78050
O696        O  0.81230856  0.04506267  0.88188490    -0.60280
O697        O  0.75835696  0.01693715  0.89613634    -0.53310
C698        C  0.78417805  0.04109422  0.90279754     0.70060
O699        O  0.90886266  0.03707742  0.80841811    -0.74840
O700        O  0.91254876  0.02403294  0.74711357    -0.55410
C701        C  0.92264998  0.04247737  0.77623861     0.76060
O702        O  0.71432885  0.04969529  0.78280659    -0.59990
O703        O  0.70633660  0.01347370  0.83382288    -0.53100
C704        C  0.69705033  0.04025226  0.81283275     0.72660
Zr705      Zr  0.76976951  0.02644553  0.74877523     2.54710
O706        O  0.77113004  0.09332275  0.74291450    -0.80550
O707        O  0.71898881  0.01744951  0.70466963    -0.93970
Zr708      Zr  0.84558014  0.03011306  0.82741181     2.64680
O709        O  0.83834973  0.09254357  0.80413372    -0.98920
O710        O  0.88299063  0.05306839  0.87889259    -0.80980
O711        O  0.83446220  0.03045908  0.76328136    -0.84340
O712        O  0.78172756  0.02830426  0.81380425    -2.19050
O713        O  0.71420482  0.90043846  0.77510498    -0.67730
O714        O  0.70327601  0.93481708  0.82762162    -0.52300
C715        C  0.69389751  0.91096942  0.80241347     0.71040
O716        O  0.90098368  0.90513040  0.79918744    -0.60640
O717        O  0.91839048  0.93378488  0.74650451    -0.52620
C718        C  0.92304251  0.90922112  0.77179618     0.72840
O719        O  0.82041043  0.93226263  0.89411648    -0.72030
O720        O  0.75895005  0.92903093  0.89246794    -0.50710
C721        C  0.79019746  0.91740183  0.90474712     0.74220
O722        O  0.80844112  0.90008615  0.69369129    -0.67360
O723        O  0.86067174  0.93555718  0.69162399    -0.54560
C724        C  0.83885429  0.91086371  0.67827370     0.72610
Zr725      Zr  0.77490729  0.91718921  0.75102758     2.77540
O726        O  0.78107225  0.85054741  0.75653913    -0.98110
O727        O  0.73051613  0.91437932  0.69980616    -0.78930
Zr728      Zr  0.84698113  0.92241111  0.83315777     2.70070
O729        O  0.83549907  0.85693455  0.83955208    -0.80180
O730        O  0.90029050  0.91482386  0.87360214    -0.99270
Zr731      Zr  0.86440474  0.97530137  0.74391809     2.21500
Zr732      Zr  0.75719352  0.97348462  0.84146665     2.11130
O733        O  0.78370824  0.91789546  0.81679336    -2.47950
O734        O  0.83830604  0.91996821  0.76814123    -0.79970
O735        O  0.74614358  0.97131682  0.77540922    -0.72170
O736        O  0.87524122  0.97542410  0.80874956    -2.33130
O737        O  0.79979426  0.97224958  0.72669292    -2.29330
O738        O  0.82137389  0.97721705  0.85655285    -0.73930
H739        H  0.77066907  0.05015068  0.82443499     0.78070
H740        H  0.90130213  0.97437946  0.81499341     0.79150
H741        H  0.77255998  0.89630582  0.82774437     0.81380
H742        H  0.79662757  0.97074476  0.70006927     0.78990
H743        H  0.89378211  0.03063180  0.89012125     0.42020
H744        H  0.89141111  0.92092838  0.89885345     0.40990
H745        H  0.84027415  0.84660331  0.81448431     0.40670
H746        H  0.76807262  0.84425411  0.77982579     0.38600
H747        H  0.71339987  0.93517411  0.70450842     0.41740
H748        H  0.72994301  0.00311962  0.68395832     0.36520
H749        H  0.79706544  0.09924277  0.73624916     0.42640
H750        H  0.81967880  0.10416409  0.82045290     0.39050
H751        H  0.76494868  0.84040796  0.73652786     0.43970
H752        H  0.71462432  0.04226041  0.69418821     0.42690
H753        H  0.86206369  0.10507752  0.81013944     0.42830
H754        H  0.90383477  0.88784704  0.87332769     0.43190
O755        O  0.71833531  0.76551019  0.06848900    -0.75680
O756        O  0.71701709  0.81973223  0.03706630    -0.54590
C757        C  0.70225351  0.79599000  0.05846646     0.78050
O758        O  0.91518192  0.78957011  0.06788723    -0.60280
O759        O  0.92323359  0.73236711  0.04283585    -0.53310
C760        C  0.93320062  0.75927017  0.06442641     0.70060
O761        O  0.82950473  0.87694810  0.05037107    -0.74840
O762        O  0.76766797  0.87318618  0.04372176    -0.55410
C763        C  0.79675510  0.88608230  0.05990829     0.76060
O764        O  0.80979632  0.67280799  0.06330342    -0.59990
O765        O  0.86748967  0.67417284  0.03815598    -0.53100
C766        C  0.84157028  0.65753498  0.05558848     0.72660
Zr767      Zr  0.77998719  0.73550469  0.05546809     2.54710
O768        O  0.78745182  0.73986247  0.12265788    -0.80550
O769        O  0.73303418  0.68759367  0.06243634    -0.93970
Zr770      Zr  0.85667962  0.81612936  0.04906620     2.64680
O771        O  0.84461961  0.81825289  0.11509268    -0.98920
O772        O  0.90469650  0.86312153  0.05476170    -0.80980
O773        O  0.79317931  0.80029955  0.05312711    -0.84340
O774        O  0.84435486  0.75205888  0.05483023    -2.19050
O775        O  0.80776797  0.67065280  0.93372469    -0.67730
O776        O  0.86211345  0.67172799  0.96608327    -0.52300
C777        C  0.83892461  0.65608635  0.94436682     0.71040
O778        O  0.82236955  0.86458354  0.91953255    -0.60640
O779        O  0.77007257  0.87592651  0.95306160    -0.52620
C780        C  0.79374381  0.88396919  0.92750327     0.72840
O781        O  0.91029786  0.78161334  0.92258368    -0.72030
O782        O  0.92294131  0.73002432  0.95593630    -0.50710
C783        C  0.93078225  0.75413282  0.93083974     0.74220
O784        O  0.71608466  0.76331033  0.92845487    -0.67360
O785        O  0.71387212  0.81774258  0.96067063    -0.54560
C786        C  0.70020513  0.79431051  0.93773776     0.72610
Zr787      Zr  0.77583729  0.73077426  0.94511404     2.77540
O788        O  0.77593705  0.72697569  0.87749679    -0.98110
O789        O  0.72780766  0.68388646  0.95110895    -0.78930
Zr790      Zr  0.85210444  0.80839883  0.93900557     2.70070
O791        O  0.83667072  0.79154410  0.87515906    -0.80180
O792        O  0.89973189  0.85540328  0.93207622    -0.99270
Zr793      Zr  0.76811550  0.82385187  0.99687463     2.21500
Zr794      Zr  0.87016460  0.72717567  0.99954765     2.11130
O795        O  0.84080002  0.74469343  0.94275692    -2.47950
O796        O  0.78825896  0.79511364  0.94127149    -0.79970
O797        O  0.80562703  0.71048960  0.00054807    -0.72170
O798        O  0.83144138  0.83848956  0.99279669    -2.33130
O799        O  0.75312507  0.75908197  0.99986849    -2.29330
O800        O  0.88234190  0.79048456  0.99463260    -0.73930
H801        H  0.85653227  0.74212688  0.07654663     0.78070
H802        H  0.83587015  0.86446159  0.98897820     0.79150
H803        H  0.85194594  0.73218295  0.92183826     0.81380
H804        H  0.72665339  0.75509113  0.00021529     0.78990
H805        H  0.91325864  0.86694062  0.02896770     0.42020
H806        H  0.89081901  0.87635707  0.94735234     0.40990
H807        H  0.80976225  0.79624459  0.87250994     0.40670
H808        H  0.80064260  0.71698708  0.87114938     0.38600
H809        H  0.73387188  0.67126109  0.97469134     0.41740
H810        H  0.71316192  0.69414218  0.04455952     0.36520
H811        H  0.77331717  0.76216908  0.12978002     0.42640
H812        H  0.81792961  0.82428128  0.11662197     0.39050
H813        H  0.75844929  0.70663549  0.87149659     0.43970
H814        H  0.72213104  0.69217012  0.08723317     0.42690
H815        H  0.84589442  0.79219462  0.12297947     0.42830
H816        H  0.92147563  0.84630058  0.94618738     0.43190
C817        C  0.96989995  0.58660411  0.81544685    -0.09550
C818        C  0.94777324  0.61763909  0.82184959     0.06650
C819        C  0.91118828  0.61251865  0.83350669    -0.03310
C820        C  0.89950228  0.57725047  0.84377150    -0.07760
C821        C  0.92457396  0.54743317  0.84561906     0.05760
C822        C  0.95589536  0.55125771  0.82250759    -0.02790
Br823      Br  0.95940262  0.51968241  0.77979648    -0.02480
H824        H  0.99568893  0.58963659  0.80042434     0.09680
H825        H  0.87070721  0.57365317  0.84953953     0.07690
Br826      Br  0.87699116  0.65280920  0.83729628    -0.02910
C827        C  0.89721145  0.57017266  0.93049501    -0.09550
C828        C  0.87253797  0.54614521  0.91300499     0.06650
C829        C  0.83582753  0.55791509  0.90578019    -0.03310
C830        C  0.82476953  0.59361753  0.91639199    -0.07760
C831        C  0.85037840  0.61846291  0.93245025     0.05760
C832        C  0.88752504  0.60624278  0.93842905    -0.02790
Br833      Br  0.92929025  0.63690774  0.95262674    -0.02480
H834        H  0.92552021  0.56191935  0.93488929     0.09680
H835        H  0.79669536  0.60244323  0.91050013     0.07690
Br836      Br  0.80327940  0.53002018  0.87369195    -0.02910
C837        C  0.92197604  0.35920384  0.81200218    -0.09550
C838        C  0.94449037  0.33707204  0.83470676     0.06650
C839        C  0.95964322  0.35313545  0.86823768    -0.03310
C840        C  0.95465738  0.39023237  0.87586240    -0.07760
C841        C  0.93135185  0.41140132  0.85411814     0.05760
C842        C  0.91483739  0.39602551  0.82193848    -0.02790
Br843      Br  0.88313121  0.42481488  0.79066985    -0.02480
H844        H  0.91051779  0.34819487  0.78631062     0.09680
H845        H  0.96720167  0.40228943  0.90061846     0.07690
Br846      Br  0.98955170  0.32891623  0.90564719    -0.02910
C847        C  0.89399296  0.38894870  0.93423760    -0.09550
C848        C  0.87309641  0.40907498  0.90889585     0.06650
C849        C  0.83963644  0.39351725  0.89536419    -0.03310
C850        C  0.82889906  0.35748557  0.90588644    -0.07760
C851        C  0.85120817  0.33635027  0.92999454     0.05760
C852        C  0.88404652  0.35344521  0.94464026    -0.02790
Br853      Br  0.91876767  0.33186151  0.97900600    -0.02480
H854        H  0.91950905  0.40044686  0.94520831     0.09680
H855        H  0.80344412  0.34585376  0.89469660     0.07690
Br856      Br  0.80806188  0.42050210  0.86243254    -0.02910
C857        C  0.92136001  0.59896564  0.18431458    -0.09550
C858        C  0.95004446  0.61714463  0.16537266     0.06650
C859        C  0.96707971  0.59879180  0.13466477    -0.03310
C860        C  0.95730835  0.56308051  0.12571256    -0.07760
C861        C  0.92865778  0.54560163  0.14388619     0.05760
C862        C  0.90985694  0.56360366  0.17295889    -0.02790
Br863      Br  0.86939876  0.54031988  0.19803252    -0.02480
H864        H  0.90750822  0.61238680  0.20733153     0.09680
H865        H  0.97174615  0.54880115  0.10360341     0.07690
Br866      Br  0.00263376  0.61894875  0.10076895    -0.02910
C867        C  0.84383396  0.55916039  0.09820237    -0.09550
C868        C  0.87686043  0.54512301  0.08274937     0.06650
C869        C  0.89562535  0.56709520  0.05680376    -0.03310
C870        C  0.88279536  0.60246283  0.04859801    -0.07760
C871        C  0.85083316  0.61788517  0.06525244     0.05760
C872        C  0.83052458  0.59485467  0.08947991    -0.02790
Br873      Br  0.78509451  0.61027329  0.11202715    -0.02480
H874        H  0.82869226  0.54250563  0.11789318     0.09680
H875        H  0.89882096  0.61818052  0.02890664     0.07690
Br876      Br  0.93989614  0.55158443  0.03207377    -0.02910
C877        C  0.96035176  0.36801334  0.19185584    -0.09550
C878        C  0.93721296  0.33789714  0.18430623     0.06650
C879        C  0.90113208  0.34470805  0.17116741    -0.03310
C880        C  0.89133129  0.38065901  0.16021734    -0.07760
C881        C  0.91775969  0.40971091  0.16015418     0.05760
C882        C  0.94894317  0.40391065  0.18363960    -0.02790
Br883      Br  0.96279402  0.43855380  0.22143005    -0.02480
H884        H  0.98598300  0.36380219  0.20714826     0.09680
H885        H  0.86347256  0.38520038  0.15026633     0.07690
Br886      Br  0.86551787  0.30561300  0.16574487    -0.02910
C887        C  0.90346585  0.37974007  0.07852331    -0.09550
C888        C  0.87775686  0.40765247  0.08503255     0.06650
C889        C  0.83943523  0.39963843  0.08220446    -0.03310
C890        C  0.82762532  0.36370542  0.07334607    -0.07760
C891        C  0.85355471  0.33532824  0.06872521     0.05760
C892        C  0.89182594  0.34364547  0.07277158    -0.02790
Br893      Br  0.92995117  0.30686386  0.07569335    -0.02480
H894        H  0.93281036  0.38534555  0.08177382     0.09680
H895        H  0.79826390  0.35791464  0.07037967     0.07690
Br896      Br  0.80240347  0.43549304  0.09441958    -0.02910
C897        C  0.84821442  0.48283816  0.01904264    -0.09550
C898        C  0.88178688  0.47399036  0.03722728     0.06650
C899        C  0.91240743  0.46547636  0.01446455    -0.03310
C900        C  0.90993332  0.46753233  0.97579521    -0.07760
C901        C  0.87704404  0.47661848  0.95726598     0.05760
C902        C  0.84534818  0.48300806  0.97958352    -0.02790
Br903      Br  0.79705536  0.48851517  0.95853783    -0.02480
H904        H  0.82400863  0.48918614  0.03547501     0.09680
H905        H  0.93431028  0.46119726  0.95970490     0.07690
Br906      Br  0.96010560  0.45348835  0.03357983    -0.02910
C907        C  0.10798098  0.58591886  0.18994795    -0.09550
C908        C  0.09689051  0.61433683  0.16583959     0.06650
C909        C  0.09415841  0.60574715  0.12741448    -0.03310
C910        C  0.09489540  0.56930689  0.11503730    -0.07760
C911        C  0.10741622  0.54114729  0.13812607     0.05760
C912        C  0.11532512  0.55005665  0.17586720    -0.02790
Br913      Br  0.13486349  0.51371444  0.20909742    -0.02480
H914        H  0.11111398  0.59150755  0.21941200     0.09680
H915        H  0.08905281  0.56347817  0.08606048     0.07690
Br916      Br  0.09473249  0.64288013  0.08948800    -0.02910
C917        C  0.15337197  0.56034565  0.05312306    -0.09550
C918        C  0.16725739  0.54199776  0.08392837     0.06650
C919        C  0.19601155  0.55878027  0.10499046    -0.03310
C920        C  0.20914524  0.59430320  0.09560224    -0.07760
C921        C  0.19304095  0.61378862  0.06592559     0.05760
C922        C  0.16462905  0.59576212  0.04462949    -0.02790
Br923      Br  0.13786297  0.61643085  0.00319393    -0.02480
H924        H  0.13139928  0.54804912  0.03671402     0.09680
H925        H  0.23095009  0.60703305  0.11213736     0.07690
Br926      Br  0.21782221  0.53405701  0.14653930    -0.02910
C927        C  0.09972620  0.40342994  0.17355708    -0.09550
C928        C  0.10901727  0.40229186  0.13533071     0.06650
C929        C  0.11038893  0.36706545  0.11765009    -0.03310
C930        C  0.10574485  0.33528944  0.13852443    -0.07760
C931        C  0.09478241  0.33660493  0.17583502     0.05760
C932        C  0.09166303  0.37111851  0.19344975    -0.02790
Br933      Br  0.07385195  0.37550782  0.24332743    -0.02480
H934        H  0.09836503  0.42966889  0.18805845     0.09680
H935        H  0.10675583  0.30884386  0.12422310     0.07690
Br936      Br  0.11332915  0.35790730  0.06482021    -0.02910
C937        C  0.20855748  0.35313643  0.11193247    -0.09550
C938        C  0.21605921  0.34149630  0.07546176     0.06650
C939        C  0.21200887  0.36703347  0.04687546    -0.03310
C940        C  0.19038049  0.39814189  0.05218666    -0.07760
C941        C  0.17895277  0.40910580  0.08790906     0.05760
C942        C  0.19307002  0.38838588  0.11836708    -0.02790
Br943      Br  0.19272958  0.40693523  0.16845141    -0.02480
H944        H  0.21396287  0.33489146  0.13503507     0.09680
H945        H  0.18008658  0.41087908  0.02744409     0.07690
Br946      Br  0.23590436  0.36020788  0.00022316    -0.02910
C947        C  0.04089543  0.49288016  0.16059088    -0.09550
C948        C  0.05707394  0.47009329  0.13308655     0.06650
C949        C  0.03170529  0.44745214  0.11268582    -0.03310
C950        C  0.99346175  0.44875573  0.11915154    -0.07760
C951        C  0.97690141  0.47443139  0.14308451     0.05760
C952        C  0.00196941  0.49610590  0.16521989    -0.02790
Br953      Br  0.98710665  0.52693063  0.20618490    -0.02480
H954        H  0.05834612  0.50803979  0.17958556     0.09680
H955        H  0.97604989  0.42978282  0.10376191     0.07690
Br956      Br  0.04420622  0.41572549  0.07224334    -0.02910
C957        C  0.10756780  0.55251354  0.81645034    -0.09550
C958        C  0.11023135  0.54734524  0.85519600     0.06650
C959        C  0.10216722  0.57677983  0.87903442    -0.03310
C960        C  0.09686283  0.61166148  0.86452097    -0.07760
C961        C  0.09501715  0.61775243  0.82575579     0.05760
C962        C  0.09977187  0.58741837  0.80156245    -0.02790
Br963      Br  0.09422192  0.59144723  0.74872704    -0.02480
H964        H  0.11265002  0.52954630  0.79776050     0.09680
H965        H  0.09205043  0.63397124  0.88410918     0.07690
Br966      Br  0.09435003  0.57008180  0.93119819    -0.02910
C967        C  0.20542706  0.60547884  0.88307682    -0.09550
C968        C  0.21254239  0.61483214  0.92037885     0.06650
C969        C  0.20961884  0.58707337  0.94681312    -0.03310
C970        C  0.18915982  0.55536989  0.93889823    -0.07760
C971        C  0.17946733  0.54563552  0.90209523     0.05760
C972        C  0.19224106  0.56974798  0.87374035    -0.02790
Br973      Br  0.19645118  0.55402167  0.82294788    -0.02480
H974        H  0.21059441  0.62542290  0.86142878     0.09680
H975        H  0.18057139  0.53971939  0.96239429     0.07690
Br976      Br  0.23818333  0.58958665  0.99173450    -0.02910
C977        C  0.07727555  0.39624657  0.85001833    -0.09550
C978        C  0.11301533  0.41046433  0.84541820     0.06650
C979        C  0.13769466  0.39046994  0.82205512    -0.03310
C980        C  0.12846249  0.35445092  0.80984403    -0.07760
C981        C  0.09240639  0.34118674  0.81515943     0.05760
C982        C  0.06619065  0.36547898  0.82963799    -0.02790
Br983      Br  0.01974028  0.36773204  0.80478820    -0.02480
H984        H  0.05690761  0.41040210  0.86663205     0.09680
H985        H  0.14867296  0.33769052  0.79543744     0.07690
Br986      Br  0.18136826  0.41270251  0.80226607    -0.02910
C987        C  0.21641724  0.35927609  0.90617174    -0.09550
C988        C  0.19094967  0.33542703  0.92328108     0.06650
C989        C  0.15414208  0.34855736  0.92927926    -0.03310
C990        C  0.14460269  0.38437635  0.92008435    -0.07760
C991        C  0.16974027  0.40794435  0.90312161     0.05760
C992        C  0.20617019  0.39536542  0.89625206    -0.02790
Br993      Br  0.24292494  0.42586789  0.87328503    -0.02480
H994        H  0.24468715  0.35036904  0.90171436     0.09680
H995        H  0.11661827  0.39384303  0.92539846     0.07690
Br996      Br  0.11351791  0.32039904  0.94907214    -0.02910
C997        C  0.13256162  0.47607119  0.97063170    -0.09550
C998        C  0.16685769  0.47423312  0.95258202     0.06650
C999        C  0.19933383  0.47434077  0.97520075    -0.03310
C1000       C  0.19662261  0.47612210  0.01453246    -0.07760
C1001       C  0.16185330  0.47636473  0.03236866     0.05760
C1002       C  0.12984033  0.47794032  0.00942108    -0.02790
Br1003     Br  0.08149239  0.48783312  0.02857569    -0.02480
H1004       H  0.10740123  0.47761256  0.95412041     0.09680
H1005       H  0.22167988  0.47628079  0.03128732     0.07690
Br1006     Br  0.24778664  0.47663093  0.95426072    -0.02910
C1007       C  0.00069440  0.46541251  0.83067585    -0.09550
C1008       C  0.98102517  0.48028395  0.86138138     0.06650
C1009       C  0.00340821  0.49437631  0.89091833    -0.03310
C1010       C  0.04245517  0.49297986  0.88969033    -0.07760
C1011       C  0.06192711  0.48049733  0.85835951     0.05760
C1012       C  0.04005461  0.46854861  0.82762269    -0.02790
Br1013     Br  0.06257588  0.45755462  0.78072922    -0.02480
H1014       H  0.98528342  0.45298440  0.80789210     0.09680
H1015       H  0.05795580  0.50168316  0.91402960     0.07690
Br1016     Br  0.98350928  0.51436377  0.93562518    -0.02910
C1017       C  0.59075599  0.91036400  0.80918618    -0.09550
C1018       C  0.58566989  0.87912934  0.83172233     0.06650
C1019       C  0.61249965  0.85104036  0.82726717    -0.03310
C1020       C  0.64874413  0.86060675  0.81702149    -0.07760
C1021       C  0.65599384  0.89631637  0.80439233     0.05760
C1022       C  0.62590439  0.91888303  0.79522835    -0.02790
Br1023     Br  0.63225884  0.96105492  0.76374333    -0.02480
H1024       H  0.56857033  0.92914449  0.80327143     0.09680
H1025       H  0.67069627  0.84032246  0.81821901     0.07690
Br1026     Br  0.59819931  0.80014620  0.82343799    -0.02910
C1027       C  0.65915348  0.84529100  0.91886816    -0.09550
C1028       C  0.66384691  0.80680759  0.92217192     0.06650
C1029       C  0.63227323  0.78414749  0.91789099    -0.03310
C1030       C  0.59744307  0.80020500  0.91020065    -0.07760
C1031       C  0.59320970  0.83881886  0.90641501     0.05760
C1032       C  0.62460362  0.86122103  0.91259304    -0.02790
Br1033     Br  0.62256928  0.91379619  0.91556482    -0.02480
H1034       H  0.68263090  0.86368333  0.92291737     0.09680
H1035       H  0.57384122  0.78225404  0.90527263     0.07690
Br1036     Br  0.63489663  0.73166637  0.92307157    -0.02910
C1037       C  0.42766530  0.90683588  0.87291332    -0.09550
C1038       C  0.45061002  0.88694577  0.84939306     0.06650
C1039       C  0.43609941  0.87312500  0.81538107    -0.03310
C1040       C  0.39976261  0.88244523  0.80425088    -0.07760
C1041       C  0.37646698  0.90196078  0.82858618     0.05760
C1042       C  0.39037833  0.91072520  0.86474055    -0.02790
Br1043     Br  0.36011466  0.92237294  0.90703021    -0.02480
H1044       H  0.43813015  0.91641408  0.89959088     0.09680
H1045       H  0.38984058  0.87436215  0.77689951     0.07690
Br1046     Br  0.46538765  0.84298420  0.78288849    -0.02910
C1047       C  0.43624822  0.85147650  0.93744167    -0.09550
C1048       C  0.45521196  0.83386529  0.90888556     0.06650
C1049       C  0.43857215  0.80303612  0.89126583    -0.03310
C1050       C  0.40224169  0.79217585  0.90058809    -0.07760
C1051       C  0.38218659  0.81148223  0.92792014     0.05760
C1052       C  0.40063057  0.84098098  0.94727175    -0.02790
Br1053     Br  0.38156035  0.86845240  0.98923337    -0.02480
H1054       H  0.44844077  0.87502411  0.95131937     0.09680
H1055       H  0.38975961  0.76870094  0.88647189     0.07690
Br1056     Br  0.46516681  0.77443874  0.85536232    -0.02910
C1057       C  0.61130425  0.91219479  0.12285177    -0.09550
C1058       C  0.58764425  0.89126093  0.14435111     0.06650
C1059       C  0.60032143  0.87856954  0.17926546    -0.03310
C1060       C  0.63591047  0.88866498  0.19245241    -0.07760
C1061       C  0.66040080  0.90842571  0.16964259     0.05760
C1062       C  0.64794944  0.91775952  0.13313640    -0.02790
Br1063     Br  0.67919238  0.93291202  0.09249874    -0.02480
H1064       H  0.60191430  0.92156424  0.09608356     0.09680
H1065       H  0.64474191  0.88009988  0.21988744     0.07690
Br1066     Br  0.57119333  0.84570132  0.20857705    -0.02910
C1067       C  0.60776901  0.80662284  0.10749106    -0.09550
C1068       C  0.59202731  0.83521630  0.08612686     0.06650
C1069       C  0.61236911  0.84905615  0.05598540    -0.03310
C1070       C  0.64628904  0.83364415  0.04712626    -0.07760
C1071       C  0.66334437  0.80615662  0.06901665     0.05760
C1072       C  0.64328225  0.79230380  0.09948829    -0.02790
Br1073     Br  0.66318282  0.75545177  0.13180679    -0.02480
H1074       H  0.59268167  0.79601015  0.13108485     0.09680
H1075       H  0.66004154  0.84482963  0.02298885     0.07690
Br1076     Br  0.59900123  0.89145437  0.02717273    -0.02910
C1077       C  0.41825186  0.88838124  0.11745705    -0.09550
C1078       C  0.44937355  0.88631025  0.14075802     0.06650
C1079       C  0.44412618  0.89284986  0.17947457    -0.03310
C1080       C  0.40876989  0.90180114  0.19330802    -0.07760
C1081       C  0.37790272  0.90322065  0.16952845     0.05760
C1082       C  0.38306722  0.89472953  0.13151185    -0.02790
Br1083     Br  0.34303053  0.88879423  0.09696286    -0.02480
H1084       H  0.42094622  0.88358252  0.08786361     0.09680
H1085       H  0.40555553  0.90824505  0.22256331     0.07690
Br1086     Br  0.48282386  0.88757758  0.21566652    -0.02910
C1087       C  0.44471655  0.81071752  0.05208191    -0.09550
C1088       C  0.45520977  0.81993164  0.08881084     0.06650
C1089       C  0.43235843  0.80567106  0.11757558    -0.03310
C1090       C  0.39604618  0.79330053  0.10925924    -0.07760
C1091       C  0.38484639  0.78882488  0.07212540     0.05760
C1092       C  0.41178935  0.79195681  0.04463760    -0.02790
Br1093     Br  0.40724253  0.76484682  0.99912678    -0.02480
H1094       H  0.46077208  0.81786359  0.02831391     0.09680
H1095       H  0.37693614  0.78719943  0.13150051     0.07690
Br1096     Br  0.45000375  0.80028278  0.16765077    -0.02910
C1097       C  0.51615895  0.87109395  0.01686267    -0.09550
C1098       C  0.52390768  0.83833369  0.03568649     0.06650
C1099       C  0.53236372  0.80695813  0.01367689    -0.03310
C1100       C  0.53191326  0.80909015  0.97409106    -0.07760
C1101       C  0.52491285  0.84278334  0.95558015     0.05760
C1102       C  0.51760643  0.87396204  0.97812697    -0.02790
Br1103     Br  0.50993501  0.92229231  0.95819519    -0.02480
H1104       H  0.51189939  0.89570238  0.03278390     0.09680
H1105       H  0.53681040  0.78432083  0.95799712     0.07690
Br1106     Br  0.54326275  0.76078416  0.03661586    -0.02910
C1107       C  0.60070847  0.08116525  0.82033235    -0.09550
C1108       C  0.59410574  0.07372867  0.85810222     0.06650
C1109       C  0.62351499  0.06174799  0.88084687    -0.03310
C1110       C  0.65867335  0.05845079  0.86585314    -0.07760
C1111       C  0.66439486  0.06058747  0.82709485     0.05760
C1112       C  0.63540123  0.07372254  0.80440260    -0.02790
Br1113     Br  0.64057700  0.07925566  0.75175647    -0.02480
H1114       H  0.57831123  0.09110828  0.80290681     0.09680
H1115       H  0.68045960  0.04841833  0.88402016     0.07690
Br1116     Br  0.61506661  0.03620207  0.92718580    -0.02910
C1117       C  0.64202730  0.16866780  0.89837685    -0.09550
C1118       C  0.66205054  0.15119550  0.92699277     0.06650
C1119       C  0.64299240  0.12502066  0.94920408    -0.03310
C1120       C  0.60531418  0.11897898  0.94403333    -0.07760
C1121       C  0.58685793  0.13180574  0.91265714     0.05760
C1122       C  0.60507864  0.15802415  0.89026272    -0.02790
Br1123     Br  0.58049481  0.17901313  0.84811963    -0.02480
H1124       H  0.65559629  0.18896185  0.88114632     0.09680
H1125       H  0.59209798  0.09964845  0.96216152     0.07690
Br1126     Br  0.66513685  0.09455012  0.98717854    -0.02910
C1127       C  0.40401064  0.07302029  0.80459757    -0.09550
C1128       C  0.38190116  0.04953894  0.82638371     0.06650
C1129       C  0.39823971  0.03434093  0.85902337    -0.03310
C1130       C  0.43594162  0.03777752  0.86547562    -0.07760
C1131       C  0.45634046  0.06449562  0.84731508     0.05760
C1132       C  0.44049975  0.08206549  0.81611397    -0.02790
Br1133     Br  0.46815549  0.11773682  0.78862366    -0.02480
H1134       H  0.39263592  0.08535021  0.77969923     0.09680
H1135       H  0.44856829  0.02251657  0.88786017     0.07690
Br1136     Br  0.37111345  0.01600487  0.90112370    -0.02910
C1137       C  0.39392328  0.11670591  0.93996582    -0.09550
C1138       C  0.37865284  0.14867585  0.92352355     0.06650
C1139       C  0.39994537  0.16677879  0.89615819    -0.03310
C1140       C  0.43540189  0.15310944  0.88681950    -0.07760
C1141       C  0.44983921  0.12133731  0.90395410     0.05760
C1142       C  0.42832703  0.10305593  0.93012433    -0.02790
Br1143     Br  0.44389436  0.05798817  0.95215597    -0.02480
H1144       H  0.37908455  0.10138072  0.96090233     0.09680
H1145       H  0.45163990  0.16711495  0.86595336     0.07690
Br1146     Br  0.38202418  0.20889361  0.86971042    -0.02910
C1147       C  0.50453516  0.99986116  0.82488692    -0.09550
C1148       C  0.52791151  0.01798029  0.85120449     0.06650
C1149       C  0.55164280  0.99393255  0.87083160    -0.03310
C1150       C  0.54031851  0.95752639  0.87736279    -0.07760
C1151       C  0.51932563  0.93807144  0.85064661     0.05760
C1152       C  0.50231558  0.96046265  0.82271408    -0.02790
Br1153     Br  0.48032441  0.94042129  0.77860516    -0.02480
H1154       H  0.48933951  0.01601809  0.80479358     0.09680
H1155       H  0.55559701  0.94200094  0.89760877     0.07690
Br1156     Br  0.59978219  0.98794836  0.85008856    -0.02910
C1157       C  0.64977204  0.02592569  0.14350215    -0.09550
C1158       C  0.66492428  0.04532720  0.17392759     0.06650
C1159       C  0.64215209  0.07053333  0.19297519    -0.03310
C1160       C  0.60633444  0.07761232  0.17909151    -0.07760
C1161       C  0.59390471  0.06223795  0.14508299     0.05760
C1162       C  0.61517456  0.03400030  0.12912534    -0.02790
Br1163     Br  0.59884634  0.00192958  0.09044539    -0.02480
H1164       H  0.66521337  0.00405095  0.13017313     0.09680
H1165       H  0.58818737  0.09539324  0.19482393     0.07690
Br1166     Br  0.65850794  0.09710957  0.23637119    -0.02910
C1167       C  0.64997400  0.15684410  0.11095752    -0.09550
C1168       C  0.65976198  0.16316718  0.07392831     0.06650
C1169       C  0.63206109  0.15910674  0.04696176    -0.03310
C1170       C  0.60103527  0.13708257  0.05392819    -0.07760
C1171       C  0.59207603  0.12645209  0.09053020     0.05760
C1172       C  0.61417286  0.14315253  0.11906356    -0.02790
Br1173     Br  0.59159138  0.16214916  0.16331283    -0.02480
H1174       H  0.66867992  0.16503802  0.13321515     0.09680
H1175       H  0.58431073  0.13008034  0.03026711     0.07690
Br1176     Br  0.63203792  0.19125208  0.00498199    -0.02910
C1177       C  0.40520435  0.07354718  0.19551181    -0.09550
C1178       C  0.38118158  0.05231663  0.17255495     0.06650
C1179       C  0.39550008  0.03903713  0.13825738    -0.03310
C1180       C  0.43258061  0.04322316  0.13027973    -0.07760
C1181       C  0.45569354  0.06660739  0.15056800     0.05760
C1182       C  0.44189657  0.08176852  0.18400925    -0.02790
Br1183     Br  0.47255542  0.11285292  0.21465328    -0.02480
H1184       H  0.39546545  0.08407928  0.22193217     0.09680
H1185       H  0.44252207  0.02935683  0.10623924     0.07690
Br1186     Br  0.36719519  0.01770275  0.09745238    -0.02910
C1187       C  0.44052243  0.15053772  0.10797423    -0.09550
C1188       C  0.45466450  0.11903645  0.08999395     0.06650
C1189       C  0.43305263  0.10131689  0.06285405    -0.03310
C1190       C  0.39869692  0.11523800  0.05323816    -0.07760
C1191       C  0.38354799  0.14655085  0.07105656     0.05760
C1192       C  0.40510441  0.16432571  0.09897382    -0.02790
Br1193     Br  0.38776392  0.20604111  0.12688174    -0.02480
H1194       H  0.45674924  0.16388367  0.12969668     0.09680
H1195       H  0.38347838  0.10026877  0.03189789     0.07690
Br1196     Br  0.44699459  0.05570691  0.04038110    -0.02910
C1197       C  0.50673956  0.99845973  0.11204966    -0.09550
C1198       C  0.52217779  0.01674091  0.14274839     0.06650
C1199       C  0.53469315  0.99453983  0.17253523    -0.03310
C1200       C  0.53342607  0.95533380  0.16948206    -0.07760
C1201       C  0.51687378  0.93732376  0.13837533     0.05760
C1202       C  0.50166894  0.96038769  0.11055696    -0.02790
Br1203     Br  0.47248012  0.94401386  0.06906320    -0.02480
H1204       H  0.49777561  0.01441138  0.08853596     0.09680
H1205       H  0.54480739  0.93898028  0.19183493     0.07690
Br1206     Br  0.55170466  0.01592017  0.21831915    -0.02910
C1207       C  0.52594289  0.08624411  0.97581870    -0.09550
C1208       C  0.51619693  0.11882574  0.95788613     0.06650
C1209       C  0.50640972  0.14927052  0.98080473    -0.03310
C1210       C  0.50804070  0.14652169  0.02051098    -0.07760
C1211       C  0.51998620  0.11374427  0.03829556     0.05760
C1212       C  0.52869251  0.08373674  0.01442153    -0.02790
Br1213     Br  0.54341429  0.03679159  0.03108541    -0.02480
H1214       H  0.53272003  0.06219590  0.95908523     0.09680
H1215       H  0.50057120  0.17016008  0.03739663     0.07690
Br1216     Br  0.49100147  0.19476500  0.95916225    -0.02910
C1217       C  0.96731385  0.81441444  0.57903378    -0.09550
C1218       C  0.93068278  0.81866887  0.56645442     0.06650
C1219       C  0.90240227  0.80160398  0.58783157    -0.03310
C1220       C  0.91018287  0.78973837  0.62440579    -0.07760
C1221       C  0.94697817  0.78925320  0.63726940     0.05760
C1222       C  0.97513023  0.79646814  0.61184196    -0.02790
Br1223     Br  0.02399264  0.77807862  0.61860625    -0.02480
H1224       H  0.99068797  0.82622918  0.56529832     0.09680
H1225       H  0.88790300  0.78084087  0.64231318     0.07690
Br1226     Br  0.85453459  0.79044109  0.56707884    -0.02910
C1227       C  0.84265327  0.87769838  0.57770053    -0.09550
C1228       C  0.88064636  0.88273482  0.57047430     0.06650
C1229       C  0.90421464  0.89264200  0.60049121    -0.03310
C1230       C  0.88967993  0.89772122  0.63562198    -0.07760
C1231       C  0.85146150  0.89548595  0.64234260     0.05760
C1232       C  0.82773984  0.88446023  0.61305264    -0.02790
Br1233     Br  0.77526597  0.87873568  0.61905473    -0.02480
H1234       H  0.82460389  0.86721479  0.55588744     0.09680
H1235       H  0.90874204  0.90513433  0.65791042     0.07690
Br1236     Br  0.95659160  0.90069134  0.59750849    -0.02910
C1237       C  0.89715821  0.89665515  0.40471949    -0.09550
C1238       C  0.87396726  0.87994586  0.43018138     0.06650
C1239       C  0.83720569  0.87159437  0.41908993    -0.03310
C1240       C  0.82482576  0.88061084  0.38278334    -0.07760
C1241       C  0.84958887  0.89590984  0.35677245     0.05760
C1242       C  0.88697070  0.90138597  0.36820825    -0.02790
Br1243     Br  0.92803462  0.91323877  0.33649606    -0.02480
H1244       H  0.92483166  0.90413978  0.41259776     0.09680
H1245       H  0.79605650  0.87612627  0.37517802     0.07690
Br1246     Br  0.80362563  0.84804127  0.45246501    -0.02910
C1247       C  0.96862765  0.82820788  0.37180356    -0.09550
C1248       C  0.94704861  0.79955639  0.35614593     0.06650
C1249       C  0.91903685  0.78370538  0.37803676    -0.03310
C1250       C  0.91278402  0.79753426  0.41424925    -0.07760
C1251       C  0.93443525  0.82663515  0.42937707     0.05760
C1252       C  0.96327179  0.84134912  0.40754632    -0.02790
Br1253     Br  0.99476510  0.88223809  0.42069073    -0.02480
H1254       H  0.99102027  0.84051925  0.35614889     0.09680
H1255       H  0.89011633  0.78633104  0.43030485     0.07690
Br1256     Br  0.88712435  0.74551959  0.35914964    -0.02910
C1257       C  0.93601074  0.11322534  0.64032215    -0.09550
C1258       C  0.93881107  0.15174817  0.64356002     0.06650
C1259       C  0.93753000  0.17249022  0.61041902    -0.03310
C1260       C  0.93279272  0.15413790  0.57565083    -0.07760
C1261       C  0.93362165  0.11510682  0.57294027     0.05760
C1262       C  0.93884267  0.09561891  0.60620588    -0.02790
Br1263     Br  0.96174808  0.04861497  0.60850497    -0.02480
H1264       H  0.93818829  0.09622045  0.66494193     0.09680
H1265       H  0.92987811  0.17035404  0.55065026     0.07690
Br1266     Br  0.94536346  0.22477142  0.61085209    -0.02910
C1267       C  0.86128670  0.01134584  0.61557871    -0.09550
C1268       C  0.84013538  0.03813447  0.63411574     0.06650
C1269       C  0.83435349  0.07236433  0.61691207    -0.03310
C1270       C  0.85222932  0.07996547  0.58313284    -0.07760
C1271       C  0.87697090  0.05442559  0.56694865     0.05760
C1272       C  0.88093647  0.01944178  0.58369287    -0.02790
Br1273     Br  0.91639200  0.98249473  0.56946309    -0.02480
H1274       H  0.86539500  0.98446757  0.62798381     0.09680
H1275       H  0.84846061  0.10674318  0.57047867     0.07690
Br1276     Br  0.80515983  0.11029642  0.63958202    -0.02910
C1277       C  0.93997272  0.16969124  0.38888605    -0.09550
C1278       C  0.95124748  0.14542139  0.36029938     0.06650
C1279       C  0.96072669  0.10868263  0.37089129    -0.03310
C1280       C  0.95394209  0.09636335  0.40676035    -0.07760
C1281       C  0.93881298  0.11906730  0.43396977     0.05760
C1282       C  0.93490621  0.15707857  0.42572871    -0.02790
Br1283     Br  0.92069552  0.19243186  0.46298936    -0.02480
H1284       H  0.93477362  0.19839829  0.38263586     0.09680
H1285       H  0.96039074  0.06830477  0.41330720     0.07690
Br1286     Br  0.98424275  0.07211203  0.33986732    -0.02910
C1287       C  0.85696199  0.03321796  0.42071720    -0.09550
C1288       C  0.87182810  0.06796194  0.43101163     0.06650
C1289       C  0.86152767  0.09737633  0.40709144    -0.03310
C1290       C  0.85064626  0.09000602  0.36999338    -0.07760
C1291       C  0.84287693  0.05365201  0.35901953     0.05760
C1292       C  0.84148074  0.02660537  0.38619691    -0.02790
Br1293     Br  0.81612413  0.98064038  0.37856110    -0.02480
H1294       H  0.85553605  0.00985213  0.43794254     0.09680
H1295       H  0.84645874  0.11241835  0.35068031     0.07690
Br1296     Br  0.84740662  0.14424419  0.42698265    -0.02910
C1297       C  0.85194530  0.99109554  0.50911581    -0.09550
C1298       C  0.88393678  0.00912501  0.49520616     0.06650
C1299       C  0.91006760  0.98633489  0.47692223    -0.03310
C1300       C  0.90767693  0.94809957  0.47908533    -0.07760
C1301       C  0.87890839  0.92956705  0.49709403     0.05760
C1302       C  0.84889599  0.95185167  0.50935671    -0.02790
Br1303     Br  0.80148478  0.93170942  0.52114345    -0.02480
H1304       H  0.82931942  0.00756544  0.51974581     0.09680
H1305       H  0.92901150  0.93243419  0.46568622     0.07690
Br1306     Br  0.94761100  0.00349054  0.44407292    -0.02910
C1307       C  0.21446031  0.07648156  0.62123128    -0.09550
C1308       C  0.19070032  0.05546110  0.64375323     0.06650
C1309       C  0.15639413  0.04282407  0.62798380    -0.03310
C1310       C  0.14813693  0.04962256  0.59097458    -0.07760
C1311       C  0.17074834  0.07166718  0.56935917     0.05760
C1312       C  0.20416195  0.08548085  0.58458193    -0.02790
Br1313     Br  0.23593284  0.11709178  0.55642028    -0.02480
H1314       H  0.24057951  0.08664916  0.63231510     0.09680
H1315       H  0.12223277  0.03964919  0.57939146     0.07690
Br1316     Br  0.11719506  0.01712397  0.65374429    -0.02910
C1317       C  0.11430956  0.17002867  0.62040071    -0.09550
C1318       C  0.08909778  0.14834739  0.64065393     0.06650
C1319       C  0.07492556  0.11560316  0.62324840    -0.03310
C1320       C  0.08548195  0.10602865  0.58742312    -0.07760
C1321       C  0.11201258  0.12627958  0.56840251     0.05760
C1322       C  0.12601972  0.15899591  0.58470006    -0.02790
Br1323     Br  0.16064765  0.18947912  0.55880572    -0.02480
H1324       H  0.12525843  0.19533371  0.63238655     0.09680
H1325       H  0.07427292  0.08105722  0.57502986     0.07690
Br1326     Br  0.04266304  0.07982581  0.64572801    -0.02910
C1327       C  0.09024681  0.11330460  0.36665874    -0.09550
C1328       C  0.08816170  0.15167567  0.36107706     0.06650
C1329       C  0.09611117  0.17560918  0.39100111    -0.03310
C1330       C  0.10642115  0.16074792  0.42539695    -0.07760
C1331       C  0.10942780  0.12234739  0.43043721     0.05760
C1332       C  0.09971461  0.09862651  0.40090357    -0.02790
Br1333     Br  0.09733775  0.04609493  0.40525866    -0.02480
H1334       H  0.08356556  0.09423212  0.34422335     0.09680
H1335       H  0.11456233  0.17932057  0.44765073     0.07690
Br1336     Br  0.09270152  0.22821191  0.38691446    -0.02910
C1337       C  0.20485994  0.04926210  0.42696783    -0.09550
C1338       C  0.18303743  0.08096182  0.43261173     0.06650
C1339       C  0.18678564  0.10862812  0.40513669    -0.03310
C1340       C  0.19642451  0.09858440  0.36863454    -0.07760
C1341       C  0.21011811  0.06316756  0.36162997     0.05760
C1342       C  0.21962576  0.04119951  0.39199850    -0.02790
Br1343     Br  0.25456242  0.00173081  0.38661340    -0.02480
H1344       H  0.21078468  0.03038098  0.44888826     0.09680
H1345       H  0.19479531  0.11857065  0.34644901     0.07690
Br1346     Br  0.19232208  0.15958752  0.41881465    -0.02910
C1347       C  0.04732313  0.08348036  0.50408903    -0.09550
C1348       C  0.06495448  0.11763682  0.50025794     0.06650
C1349       C  0.04235954  0.14955379  0.50042947    -0.03310
C1350       C  0.00310098  0.14616571  0.50116691    -0.07760
C1351       C  0.98560000  0.11138830  0.50397574     0.05760
C1352       C  0.00890580  0.08023536  0.50733873    -0.02790
Br1353     Br  0.99142548  0.03214086  0.51961770    -0.02480
H1354       H  0.06394181  0.05889473  0.50675769     0.09680
H1355       H  0.98646331  0.17085938  0.50088069     0.07690
Br1356     Br  0.06329131  0.19808136  0.50273955    -0.02910
C1357       C  0.12956868  0.80224797  0.58216851    -0.09550
C1358       C  0.11389358  0.83614022  0.57099808     0.06650
C1359       C  0.09347073  0.85611295  0.59743419    -0.03310
C1360       C  0.09185428  0.84447412  0.63393071    -0.07760
C1361       C  0.10413391  0.80926032  0.64496972     0.05760
C1362       C  0.12402000  0.78820152  0.61846087    -0.02790
Br1363     Br  0.14352945  0.74043385  0.62960422    -0.02480
H1364       H  0.14566121  0.78640597  0.56242004     0.09680
H1365       H  0.07681919  0.86217748  0.65290937     0.07690
Br1366     Br  0.06050110  0.89544161  0.58582782    -0.02910
C1367       C  0.19192496  0.87447778  0.58026493    -0.09550
C1368       C  0.16511686  0.89776597  0.56372682     0.06650
C1369       C  0.15643214  0.93096271  0.58226622    -0.03310
C1370       C  0.17480778  0.94040212  0.61497287    -0.07760
C1371       C  0.19805480  0.91568740  0.63385329     0.05760
C1372       C  0.20757651  0.88258985  0.61550908    -0.02790
Br1373     Br  0.23908499  0.84652535  0.63801699    -0.02480
H1374       H  0.19891120  0.84864509  0.56673551     0.09680
H1375       H  0.16841930  0.96667936  0.62742299     0.07690
Br1376     Br  0.11645019  0.96299909  0.56916662    -0.02910
C1377       C  0.13195043  0.78727808  0.37709443    -0.09550
C1378       C  0.09483819  0.78230418  0.36575726     0.06650
C1379       C  0.06733734  0.78865059  0.39204257    -0.03310
C1380       C  0.07465206  0.81105605  0.42274814    -0.07760
C1381       C  0.11129194  0.81932441  0.43379816     0.05760
C1382       C  0.14019331  0.80321031  0.41236391    -0.02790
Br1383     Br  0.19106780  0.80649239  0.42790359    -0.02480
H1384       H  0.15422895  0.78045074  0.35825258     0.09680
H1385       H  0.05108941  0.82246642  0.43666019     0.07690
Br1386     Br  0.02208669  0.76121607  0.38972822    -0.02910
C1387       C  0.13814820  0.87999544  0.38921383    -0.09550
C1388       C  0.15309191  0.89305636  0.42319223     0.06650
C1389       C  0.18427786  0.91624332  0.41944951    -0.03310
C1390       C  0.20967064  0.90864667  0.39105083    -0.07760
C1391       C  0.19571501  0.89522642  0.35707672     0.05760
C1392       C  0.15988968  0.87952105  0.35693312    -0.02790
Br1393     Br  0.14041815  0.85712415  0.31275332    -0.02480
H1394       H  0.11022180  0.86935724  0.38746874     0.09680
H1395       H  0.23499734  0.92471886  0.39050421     0.07690
Br1396     Br  0.16963822  0.96606509  0.41044145    -0.02910
C1397       C  0.18736119  0.95999893  0.50628507    -0.09550
C1398       C  0.15390426  0.94371218  0.49333135     0.06650
C1399       C  0.12495817  0.96818434  0.48302555    -0.03310
C1400       C  0.12956382  0.00672666  0.48624528    -0.07760
C1401       C  0.16271996  0.02317282  0.49892771     0.05760
C1402       C  0.19175344  0.99892333  0.50946029    -0.02790
Br1403     Br  0.23882722  0.01740520  0.52601513    -0.02480
H1404       H  0.21007751  0.94231195  0.51448303     0.09680
H1405       H  0.10663870  0.02414438  0.47876033     0.07690
Br1406     Br  0.07821583  0.95107617  0.46384128    -0.02910
C1407       C  0.04274469  0.86527401  0.50505249    -0.09550
C1408       C  0.06260785  0.83251423  0.50417219     0.06650
C1409       C  0.04236355  0.79896739  0.50212350    -0.03310
C1410       C  0.00301947  0.79961972  0.49807947    -0.07760
C1411       C  0.98334544  0.83340644  0.49902087     0.05760
C1412       C  0.00434220  0.86605998  0.50476640    -0.02790
Br1413     Br  0.98397587  0.91412507  0.51106129    -0.02480
H1414       H  0.05769460  0.89108562  0.50675520     0.09680
H1415       H  0.98782033  0.77391807  0.49543422     0.07690
Br1416     Br  0.06754798  0.75262529  0.50231358    -0.02910
loop_ 
_geom_bond_atom_site_label_1 
_geom_bond_atom_site_label_2 
_geom_bond_distance 
_geom_bond_site_symmetry_2 
_ccdc_geom_bond_type 
C1            C2   1.427       .  A
C1            C6   1.436       .  A
C1         C1368   1.504       .  S
C2            C3   1.415       .  A
C2         C1358   1.507       .  S
C3            C4   1.429       .  A
C3         C1408   1.504       .  S
C4            C5   1.457       .  A
C4         C1381   1.518       .  S
C5            C6   1.450       .  A
C5         C1388   1.536       .  S
C6         C1398   1.527       .  S
C7            C8   1.429       .  A
C7           C12   1.443       .  A
C7         C1338   1.524       .  S
C8            C9   1.420       .  A
C8         C1401   1.532       .  S
C9           C10   1.430       .  A
C9         C1311   1.480       .  S
C10          C11   1.411       .  A
C10        C1321   1.491       .  S
C11          C12   1.420       .  A
C11        C1348   1.514       .  S
C12        C1331   1.486       .  S
C13          C14   1.422       .  A
C13          C18   1.437       .  A
C13        C1261   1.515       .  S
C14          C15   1.432       .  A
C14        C1351   1.517       .  S
C15          C16   1.453       .  A
C15        C1281   1.507       .  S
C16          C17   1.436       .  A
C16        C1288   1.536       .  S
C17          C18   1.422       .  A
C17        C1298   1.523       .  S
C18        C1271   1.496       .  S
C19          C20   1.415       .  A
C19          C24   1.435       .  A
C19        C1251   1.497       .  S
C20          C21   1.420       .  A
C20        C1411   1.511       .  S
C21          C22   1.436       .  A
C21        C1218   1.513       .  S
C22          C23   1.437       .  A
C22        C1228   1.491       .  S
C23          C24   1.427       .  A
C23        C1301   1.530       .  S
C24        C1238   1.497       .  S
C25          C26   1.425       .  A
C25          C30   1.432       .  A
C25        C1188   1.483       .  S
C26          C27   1.437       .  A
C26        C1211   1.539       .  S
C27          C28   1.452       .  A
C27        C1171   1.529       .  S
C28          C29   1.425       .  A
C28        C1161   1.492       .  S
C29          C30   1.421       .  A
C29        C1198   1.520       .  S
C30        C1181   1.505       .  S
C31          C32   1.420       .  A
C31          C36   1.442       .  A
C31        C1141   1.488       .  S
C32          C33   1.411       .  A
C32        C1208   1.525       .  S
C33          C34   1.434       .  A
C33        C1121   1.500       .  S
C34          C35   1.434       .  A
C34        C1108   1.478       .  S
C35          C36   1.431       .  A
C35        C1148   1.558       .  S
C36        C1131   1.487       .  S
C37          C38   1.425       .  A
C37          C42   1.452       .  A
C37        C1078   1.510       .  S
C38          C39   1.420       .  A
C38        C1201   1.527       .  S
C39          C40   1.428       .  A
C39        C1058   1.486       .  S
C40          C41   1.417       .  A
C40        C1068   1.497       .  S
C41          C42   1.436       .  A
C41        C1098   1.521       .  S
C42        C1088   1.520       .  S
C43          C44   1.415       .  A
C43          C48   1.432       .  A
C43        C1038   1.481       .  S
C44          C45   1.438       .  A
C44        C1151   1.546       .  S
C45          C46   1.455       .  A
C45        C1018   1.521       .  S
C46          C47   1.425       .  A
C46        C1031   1.507       .  S
C47          C48   1.419       .  A
C47        C1101   1.525       .  S
C48        C1048   1.493       .  S
C49          C50   1.430       .  A
C49          C54   1.436       .  A
C49         C978   1.502       .  S
C50          C51   1.422       .  A
C50        C1011   1.538       .  S
C51          C52   1.442       .  A
C51         C958   1.483       .  S
C52          C53   1.426       .  A
C52         C971   1.524       .  S
C53          C54   1.418       .  A
C53         C998   1.517       .  S
C54         C991   1.489       .  S
C55          C56   1.445       .  A
C55          C60   1.444       .  A
C55         C928   1.512       .  S
C56          C57   1.421       .  A
C56         C941   1.516       .  S
C57          C58   1.407       .  A
C57        C1001   1.520       .  S
C58          C59   1.434       .  A
C58         C918   1.494       .  S
C59          C60   1.442       .  A
C59         C911   1.504       .  S
C60         C948   1.545       .  S
C61          C62   1.426       .  A
C61          C66   1.427       .  A
C61         C861   1.457       .  S
C62          C63   1.431       .  A
C62         C951   1.544       .  S
C63          C64   1.456       .  A
C63         C881   1.546       .  S
C64          C65   1.429       .  A
C64         C888   1.478       .  S
C65          C66   1.409       .  A
C65         C898   1.521       .  S
C66         C868   1.511       .  S
C67          C68   1.434       .  A
C67          C72   1.458       .  A
C67         C821   1.535       .  S
C68          C69   1.423       .  A
C68        C1008   1.550       .  S
C69          C70   1.431       .  A
C69         C841   1.467       .  S
C70          C71   1.410       .  A
C70         C848   1.502       .  S
C71          C72   1.423       .  A
C71         C901   1.523       .  S
C72         C828   1.481       .  S
O73         Zr85   2.500       .  S
O73          C75   1.298       .  A
O74        Zr111   2.390       .  S
O74          C75   1.283       .  A
C75        C1371   1.497       .  S
O76         Zr88   2.379       .  S
O76          C78   1.278       .  A
O77        Zr112   2.486       .  S
O77          C78   1.290       .  A
C78         C290   1.494       .  S
O79         Zr88   2.363       .  S
O79          C81   1.275       .  A
O80        Zr111   2.485       .  S
O80          C81   1.289       .  A
C81         C633   1.489       .  S
O82         Zr85   2.510       .  S
O82          C84   1.300       .  A
O83        Zr112   2.350       .  S
O83          C84   1.271       .  A
C84        C1041   1.492       .  S
Zr85         O86   2.434       .  S
Zr85         O87   2.435       .  S
Zr85         O91   2.391       .  S
Zr85         O92   2.384       .  S
Zr85        O115   2.374       .  S
Zr85        O117   2.382       .  S
O86         H129   0.990       .  S
O87         H128   0.990       .  S
O87         H132   0.990       .  S
Zr88         O89   2.425       .  S
Zr88         O90   2.435       .  S
Zr88         O92   2.351       .  S
Zr88         O91   2.359       .  S
Zr88        O116   2.344       .  S
Zr88        O118   2.336       .  S
O89         H130   0.990       .  S
O89         H133   0.987       .  S
O90         H123   0.990       .  S
O91        Zr111   2.382       .  S
O92        Zr112   2.379       .  S
O92         H119   0.966       .  S
O93        Zr105   2.500       .  S
O93          C95   1.297       .  A
O94        Zr112   2.359   1_545  S
O94          C95   1.270       .  A
C95        C1128   1.496       .  S
O96        Zr108   2.386       .  S
O96          C98   1.278       .  A
O97        Zr111   2.465   1_545  S
O97          C98   1.284       .  A
C98         C143   1.484       .  S
O99        Zr108   2.424       .  S
O99         C101   1.277       .  A
O100       Zr112   2.449   1_545  S
O100        C101   1.282       .  A
C101        C470   1.473       .  S
O102       Zr105   2.496       .  S
O102        C104   1.297       .  A
O103       Zr111   2.374   1_545  S
O103        C104   1.269       .  A
C104       C1308   1.493       .  S
Zr105       O106   2.434       .  S
Zr105       O107   2.434       .  S
Zr105       O113   2.389       .  S
Zr105       O114   2.384       .  S
Zr105       O117   2.383   1_545  S
Zr105       O115   2.380   1_545  S
O106        H126   0.990       .  S
O106        H131   0.990       .  S
O107        H127   0.990       .  S
Zr108       O109   2.425       .  S
Zr108       O110   2.426       .  S
Zr108       O114   2.360       .  S
Zr108       O113   2.359       .  S
Zr108       O118   2.350   1_545  S
Zr108       O116   2.365   1_545  S
O109        H125   0.990       .  S
O110        H124   0.990       .  S
O110        H134   0.986       .  S
Zr111       O114   2.394   1_565  S
Zr111       O116   2.369       .  S
Zr111       O117   2.422       .  S
Zr112       O113   2.395   1_565  S
Zr112       O115   2.404       .  S
Zr112       O118   2.355       .  S
O113        H121   0.966       .  S
O116        H120   0.966       .  S
O117        H122   0.964       .  S
O135       Zr147   2.497       .  S
O135        C137   1.297       .  A
O136       Zr173   2.371       .  S
O136        C137   1.272       .  A
C137       C1318   1.500       .  S
O138       Zr150   2.386       .  S
O138        C140   1.279       .  A
O139       Zr174   2.462       .  S
O139        C140   1.283       .  A
C140        C473   1.487       .  S
O141       Zr150   2.356       .  S
O141        C143   1.273       .  A
O142       Zr173   2.484       .  S
O142        C143   1.289       .  A
O144       Zr147   2.478       .  S
O144        C146   1.293       .  A
O145       Zr174   2.404       .  S
O145        C146   1.285       .  A
C146        C981   1.482       .  S
Zr147       O148   2.434       .  S
Zr147       O149   2.436       .  S
Zr147       O153   2.382       .  S
Zr147       O154   2.388       .  S
Zr147       O177   2.381       .  S
Zr147       O179   2.372       .  S
O148        H191   0.990       .  S
O149        H190   0.990       .  S
O149        H194   0.990       .  S
Zr150       O151   2.416       .  S
Zr150       O152   2.435       .  S
Zr150       O154   2.358       .  S
Zr150       O153   2.357       .  S
Zr150       O178   2.352       .  S
Zr150       O180   2.322       .  S
O151        H192   0.990       .  S
O151        H195   0.988       .  S
O152        H185   0.990       .  S
O153       Zr173   2.375       .  S
O154       Zr174   2.383       .  S
O154        H181   0.966       .  S
O155       Zr167   2.515       .  S
O155        C157   1.301       .  A
O156       Zr174   2.328   1_655  S
O156        C157   1.263       .  A
C157        C838   1.491       .  S
O158       Zr170   2.394       .  S
O158        C160   1.279       .  A
O159       Zr173   2.466   1_655  S
O159        C160   1.289       .  A
C160        C701   1.478       .  S
O161       Zr170   2.407       .  S
O161        C163   1.270       .  A
O162       Zr174   2.465   1_655  S
O162        C163   1.283       .  A
C163        C591   1.475       .  S
O164       Zr167   2.514       .  S
O164        C166   1.300       .  A
O165       Zr173   2.368   1_655  S
O165        C166   1.279       .  A
C166       C1258   1.497       .  S
Zr167       O168   2.435       .  S
Zr167       O169   2.434       .  S
Zr167       O175   2.387       .  S
Zr167       O176   2.394       .  S
Zr167       O179   2.384   1_655  S
Zr167       O177   2.384   1_655  S
O168        H188   0.990       .  S
O168        H193   0.990       .  S
O169        H189   0.990       .  S
Zr170       O171   2.428       .  S
Zr170       O172   2.436       .  S
Zr170       O176   2.363       .  S
Zr170       O175   2.360       .  S
Zr170       O180   2.362   1_655  S
Zr170       O178   2.361   1_655  S
O171        H187   0.990       .  S
O172        H186   0.990       .  S
O172        H196   0.988       .  S
Zr173       O176   2.389   1_455  S
Zr173       O178   2.362       .  S
Zr173       O179   2.412       .  S
Zr174       O175   2.404   1_455  S
Zr174       O177   2.406       .  S
Zr174       O180   2.365       .  S
O175        H183   0.965       .  S
O178        H182   0.966       .  S
O179        H184   0.965       .  S
O197       Zr209   2.480       .  S
O197        C199   1.294       .  A
O198       Zr235   2.448       .  S
O198        C199   1.295       .  A
C199       C1378   1.491       .  S
O200       Zr212   2.418       .  S
O200        C202   1.284       .  A
O201       Zr236   2.477       .  S
O201        C202   1.293       .  A
C202        C270   1.489       .  S
O203       Zr212   2.390       .  S
O203        C205   1.281       .  A
O204       Zr235   2.484       .  S
O204        C205   1.287       .  A
C205        C385   1.501       .  S
O206       Zr209   2.518       .  S
O206        C208   1.302       .  A
O207       Zr236   2.375       .  S
O207        C208   1.278       .  A
C208        C908   1.502       .  S
Zr209       O210   2.433       .  S
Zr209       O211   2.436       .  S
Zr209       O215   2.399       .  S
Zr209       O216   2.379       .  S
Zr209       O239   2.367       .  S
Zr209       O241   2.393       .  S
O210        H253   0.990       .  S
O211        H252   0.990       .  S
O211        H256   0.990       .  S
Zr212       O213   2.414       .  S
Zr212       O214   2.431       .  S
Zr212       O216   2.355       .  S
Zr212       O215   2.360       .  S
Zr212       O240   2.355       .  S
Zr212       O242   2.345       .  S
O213        H254   0.990       .  S
O213        H257   0.986       .  S
O214        H247   0.990       .  S
O215       Zr235   2.397       .  S
O216       Zr236   2.375       .  S
O216        H243   0.966       .  S
O217       Zr229   2.487       .  S
O217        C219   1.297       .  A
O218       Zr236   2.352   1_655  S
O218        C219   1.269       .  A
C219        C858   1.479       .  S
O220       Zr232   2.370       .  S
O220        C222   1.275       .  A
O221       Zr235   2.497   1_655  S
O221        C222   1.292       .  A
C222        C538   1.496       .  S
O223       Zr232   2.422       .  S
O223        C225   1.277       .  A
O224       Zr236   2.459   1_655  S
O224        C225   1.283       .  A
C225        C760   1.481       .  S
O226       Zr229   2.496       .  S
O226        C228   1.295       .  A
O227       Zr235   2.380   1_655  S
O227        C228   1.276       .  A
C228       C1248   1.491       .  S
Zr229       O230   2.435       .  S
Zr229       O231   2.435       .  S
Zr229       O237   2.387       .  S
Zr229       O238   2.378       .  S
Zr229       O241   2.379   1_655  S
Zr229       O239   2.380   1_655  S
O230        H250   0.990       .  S
O230        H255   0.990       .  S
O231        H251   0.990       .  S
Zr232       O233   2.431       .  S
Zr232       O234   2.414       .  S
Zr232       O238   2.360       .  S
Zr232       O237   2.340       .  S
Zr232       O242   2.347   1_655  S
Zr232       O240   2.370   1_655  S
O233        H249   0.990       .  S
O234        H248   0.990       .  S
O234        H258   0.988       .  S
Zr235       O238   2.397   1_455  S
Zr235       O240   2.385       .  S
Zr235       O241   2.429       .  S
Zr236       O237   2.392   1_455  S
Zr236       O239   2.405       .  S
Zr236       O242   2.352       .  S
O237        H245   0.966       .  S
O240        H244   0.966       .  S
O241        H246   0.965       .  S
O259       Zr271   2.417       .  S
O259        C261   1.280       .  A
O260       Zr297   2.468       .  S
O260        C261   1.288       .  A
C261        C394   1.483       .  S
O262       Zr274   2.524       .  S
O262        C264   1.302       .  A
O263       Zr298   2.352   1_554  S
O263        C264   1.268       .  A
C264        C921   1.495       .  S
O265       Zr274   2.461       .  S
O265        C267   1.291       .  A
O266       Zr297   2.450       .  S
O266        C267   1.293       .  A
C267       C1091   1.480       .  S
O268       Zr271   2.424       .  S
O268        C270   1.278       .  A
O269       Zr298   2.483   1_554  S
O269        C270   1.289       .  A
Zr271       O272   2.430       .  S
Zr271       O273   2.427       .  S
Zr271       O277   2.360       .  S
Zr271       O278   2.365       .  S
Zr271       O301   2.359   1_554  S
Zr271       O303   2.366   1_554  S
O272        H315   0.990       .  S
O273        H314   0.991       .  S
O273        H318   0.988       .  S
Zr274       O275   2.434       .  S
Zr274       O276   2.435       .  S
Zr274       O278   2.369       .  S
Zr274       O277   2.409       .  S
Zr274       O302   2.394   1_554  S
Zr274       O304   2.365   1_554  S
O275        H316   0.990       .  S
O275        H319   0.990       .  S
O276        H309   0.990       .  S
O277       Zr297   2.389       .  S
O278       Zr298   2.391   1_554  S
O278        H305   0.966       .  S
O279       Zr291   2.431       .  S
O279        C281   1.280       .  A
O280       Zr298   2.440       .  S
O280        C281   1.281       .  A
C281        C642   1.472       .  S
O282       Zr294   2.516       .  S
O282        C284   1.302       .  A
O283       Zr297   2.364   1_556  S
O283        C284   1.271       .  A
C284       C1051   1.498       .  S
O285       Zr294   2.467       .  S
O285        C287   1.291       .  A
O286       Zr298   2.438       .  S
O286        C287   1.291       .  A
C287        C968   1.483       .  S
O288       Zr291   2.383       .  S
O288        C290   1.278       .  A
O289       Zr297   2.492   1_556  S
O289        C290   1.292       .  A
Zr291       O292   2.429       .  S
Zr291       O293   2.428       .  S
Zr291       O299   2.352       .  S
Zr291       O300   2.367       .  S
Zr291       O303   2.368       .  S
Zr291       O301   2.342       .  S
O292        H312   0.989       .  S
O292        H317   0.989       .  S
O293        H313   0.990       .  S
Zr294       O295   2.435       .  S
Zr294       O296   2.435       .  S
Zr294       O300   2.368       .  S
Zr294       O299   2.393       .  S
Zr294       O304   2.396       .  S
Zr294       O302   2.361       .  S
O295        H311   0.990       .  S
O296        H310   0.990       .  S
O296        H320   0.990       .  S
Zr297       O300   2.394   1_554  S
Zr297       O302   2.416   1_554  S
Zr297       O303   2.378   1_554  S
Zr298       O299   2.396       .  S
Zr298       O301   2.365       .  S
Zr298       O304   2.403       .  S
O299        H307   0.965       .  S
O302        H306   0.964       .  S
O303        H308   0.966       .  S
O321       Zr333   2.385       .  S
O321        C323   1.279       .  A
O322       Zr359   2.482       .  S
O322        C323   1.288       .  A
C323        C414   1.494       .  S
O324       Zr336   2.505       .  S
O324        C326   1.299       .  A
O325       Zr360   2.352       .  S
O325        C326   1.276       .  A
C326        C931   1.475       .  S
O327       Zr336   2.493       .  S
O327        C329   1.299       .  A
O328       Zr359   2.357       .  S
O328        C329   1.277       .  A
C329       C1328   1.474       .  S
O330       Zr333   2.353       .  S
O330        C332   1.274       .  A
O331       Zr360   2.513       .  S
O331        C332   1.297       .  A
C332        C450   1.496       .  S
Zr333       O334   2.431       .  S
Zr333       O335   2.434       .  S
Zr333       O339   2.338       .  S
Zr333       O340   2.353       .  S
Zr333       O363   2.351       .  S
Zr333       O365   2.344       .  S
O334        H377   0.990       .  S
O335        H376   0.990       .  S
O335        H380   0.989       .  S
Zr336       O337   2.434       .  S
Zr336       O338   2.435       .  S
Zr336       O340   2.374       .  S
Zr336       O339   2.386       .  S
Zr336       O364   2.371       .  S
Zr336       O366   2.374       .  S
O337        H378   0.990       .  S
O337        H381   0.990       .  S
O338        H371   0.990       .  S
O339       Zr359   2.384       .  S
O340       Zr360   2.387       .  S
O340        H367   0.966       .  S
O341       Zr353   2.433       .  S
O341        C343   1.279       .  A
O342       Zr360   2.446   1_655  S
O342        C343   1.281       .  A
C343        C580   1.475       .  S
O344       Zr356   2.527       .  S
O344        C346   1.299       .  A
O345       Zr359   2.385   1_655  S
O345        C346   1.268       .  A
C346       C1278   1.509       .  S
O347       Zr356   2.482       .  S
O347        C349   1.295       .  A
O348       Zr360   2.414   1_655  S
O348        C349   1.285       .  A
C349        C878   1.477       .  S
O350       Zr353   2.410       .  S
O350        C352   1.283       .  A
O351       Zr359   2.431   1_655  S
O351        C352   1.283       .  A
C352        C509   1.461       .  S
Zr353       O354   2.420       .  S
Zr353       O355   2.429       .  S
Zr353       O361   2.369       .  S
Zr353       O362   2.368       .  S
Zr353       O365   2.365   1_655  S
Zr353       O363   2.351   1_655  S
O354        H374   0.989       .  S
O354        H379   0.986       .  S
O355        H375   0.990       .  S
Zr356       O357   2.435       .  S
Zr356       O358   2.436       .  S
Zr356       O362   2.378       .  S
Zr356       O361   2.399       .  S
Zr356       O366   2.390   1_655  S
Zr356       O364   2.372   1_655  S
O357        H373   0.990       .  S
O358        H372   0.990       .  S
O358        H382   0.990       .  S
Zr359       O362   2.382   1_455  S
Zr359       O364   2.415       .  S
Zr359       O365   2.362       .  S
Zr360       O361   2.400   1_455  S
Zr360       O363   2.367       .  S
Zr360       O366   2.415       .  S
O361        H369   0.965       .  S
O364        H368   0.964       .  S
O365        H370   0.966       .  S
O383       Zr395   2.341       .  S
O383        C385   1.270       .  A
O384       Zr421   2.524       .  S
O384        C385   1.298       .  A
O386       Zr398   2.512       .  S
O386        C388   1.302       .  A
O387       Zr422   2.373       .  S
O387        C388   1.279       .  A
C388       C1081   1.486       .  S
O389       Zr398   2.496       .  S
O389        C391   1.298       .  A
O390       Zr421   2.385       .  S
O390        C391   1.282       .  A
C391       C1391   1.478       .  S
O392       Zr395   2.378       .  S
O392        C394   1.278       .  A
O393       Zr422   2.483       .  S
O393        C394   1.293       .  A
Zr395       O396   2.427       .  S
Zr395       O397   2.435       .  S
Zr395       O401   2.351       .  S
Zr395       O402   2.339       .  S
Zr395       O425   2.340       .  S
Zr395       O427   2.357       .  S
O396        H439   0.990       .  S
O397        H438   0.990       .  S
O397        H442   0.990       .  S
Zr398       O399   2.435       .  S
Zr398       O400   2.436       .  S
Zr398       O402   2.378       .  S
Zr398       O401   2.381       .  S
Zr398       O426   2.384       .  S
Zr398       O428   2.372       .  S
O399        H440   0.990       .  S
O399        H443   0.990       .  S
O400        H433   0.990       .  S
O401       Zr421   2.396       .  S
O402       Zr422   2.380       .  S
O402        H429   0.966       .  S
O403       Zr415   2.383       .  S
O403        C405   1.279       .  A
O404       Zr422   2.469   1_545  S
O404        C405   1.290       .  A
C405        C453   1.474       .  S
O406       Zr418   2.449       .  S
O406        C408   1.289       .  A
O407       Zr421   2.438   1_545  S
O407        C408   1.291       .  A
C408       C1341   1.470       .  S
O409       Zr418   2.493       .  S
O409        C411   1.295       .  A
O410       Zr422   2.372   1_545  S
O410        C411   1.273       .  A
C411       C1178   1.499       .  S
O412       Zr415   2.364       .  S
O412        C414   1.274       .  A
O413       Zr421   2.498   1_545  S
O413        C414   1.292       .  A
Zr415       O416   2.412       .  S
Zr415       O417   2.435       .  S
Zr415       O423   2.358       .  S
Zr415       O424   2.357       .  S
Zr415       O427   2.340   1_545  S
Zr415       O425   2.342   1_545  S
O416        H436   0.989       .  S
O416        H441   0.988       .  S
O417        H437   0.990       .  S
Zr418       O419   2.435       .  S
Zr418       O420   2.435       .  S
Zr418       O424   2.388       .  S
Zr418       O423   2.375       .  S
Zr418       O428   2.369   1_545  S
Zr418       O426   2.391   1_545  S
O419        H435   0.990       .  S
O420        H434   0.990       .  S
O420        H444   0.990       .  S
Zr421       O424   2.391   1_565  S
Zr421       O426   2.430       .  S
Zr421       O427   2.378       .  S
Zr422       O423   2.384   1_565  S
Zr422       O425   2.357       .  S
Zr422       O428   2.403       .  S
O423        H431   0.966       .  S
O426        H430   0.965       .  S
O427        H432   0.966       .  S
O445       Zr457   2.494       .  S
O445        C447   1.296       .  A
O446       Zr483   2.366   1_554  S
O446        C447   1.279       .  A
C447       C1191   1.496       .  S
O448       Zr460   2.399       .  S
O448        C450   1.284       .  A
O449       Zr484   2.474       .  S
O449        C450   1.287       .  A
O451       Zr460   2.404       .  S
O451        C453   1.278       .  A
O452       Zr483   2.472   1_554  S
O452        C453   1.288       .  A
O454       Zr457   2.463       .  S
O454        C456   1.290       .  A
O455       Zr484   2.426       .  S
O455        C456   1.289       .  A
C456        C938   1.478       .  S
Zr457       O458   2.435       .  S
Zr457       O459   2.436       .  S
Zr457       O463   2.379       .  S
Zr457       O464   2.393       .  S
Zr457       O487   2.384       .  S
Zr457       O489   2.366       .  S
O458        H501   0.990       .  S
O459        H500   0.990       .  S
O459        H504   0.990       .  S
Zr460       O461   2.433       .  S
Zr460       O462   2.430       .  S
Zr460       O464   2.359       .  S
Zr460       O463   2.352       .  S
Zr460       O488   2.366   1_554  S
Zr460       O490   2.355       .  S
O461        H502   0.990       .  S
O461        H505   0.989       .  S
O462        H495   0.990       .  S
O463       Zr483   2.377   1_554  S
O464       Zr484   2.388       .  S
O464        H491   0.966       .  S
O465       Zr477   2.518       .  S
O465        C467   1.303       .  A
O466       Zr484   2.358   1_556  S
O466        C467   1.272       .  A
C467        C988   1.495       .  S
O468       Zr480   2.409       .  S
O468        C470   1.283       .  A
O469       Zr483   2.465       .  S
O469        C470   1.292       .  A
O471       Zr480   2.340       .  S
O471        C473   1.271       .  A
O472       Zr484   2.500   1_556  S
O472        C473   1.292       .  A
O474       Zr477   2.516       .  S
O474        C476   1.302       .  A
O475       Zr483   2.367       .  S
O475        C476   1.279       .  A
C476       C1138   1.504       .  S
Zr477       O478   2.435       .  S
Zr477       O479   2.434       .  S
Zr477       O485   2.379       .  S
Zr477       O486   2.386       .  S
Zr477       O489   2.378   1_556  S
Zr477       O487   2.381   1_556  S
O478        H498   0.990       .  S
O478        H503   0.990       .  S
O479        H499   0.990       .  S
Zr480       O481   2.432       .  S
Zr480       O482   2.434       .  S
Zr480       O486   2.336       .  S
Zr480       O485   2.348       .  S
Zr480       O490   2.373   1_556  S
Zr480       O488   2.323       .  S
O481        H497   0.990       .  S
O482        H496   0.990       .  S
O482        H506   0.990       .  S
Zr483       O486   2.371       .  S
Zr483       O488   2.348       .  S
Zr483       O489   2.411   1_556  S
Zr484       O485   2.396   1_554  S
Zr484       O487   2.414       .  S
Zr484       O490   2.372       .  S
O485        H493   0.965       .  S
O488        H492   0.965       .  S
O489        H494   0.965       .  S
O507       Zr519   2.398       .  S
O507        C509   1.272       .  A
O508       Zr545   2.464   1_545  S
O508        C509   1.288       .  A
O510       Zr522   2.470       .  S
O510        C512   1.290       .  A
O511       Zr546   2.374   1_545  S
O511        C512   1.277       .  A
C512       C1158   1.481       .  S
O513       Zr522   2.453       .  S
O513        C515   1.288       .  A
O514       Zr545   2.407   1_545  S
O514        C515   1.286       .  A
C515       C1291   1.464       .  S
O516       Zr519   2.405       .  S
O516        C518   1.285       .  A
O517       Zr546   2.448   1_545  S
O517        C518   1.282       .  A
C518        C571   1.482       .  S
Zr519       O520   2.425       .  S
Zr519       O521   2.437       .  S
Zr519       O525   2.368       .  S
Zr519       O526   2.358       .  S
Zr519       O549   2.344   1_545  S
Zr519       O551   2.356   1_545  S
O520        H563   0.990       .  S
O521        H562   0.990       .  S
O521        H566   0.990       .  S
Zr522       O523   2.435       .  S
Zr522       O524   2.434       .  S
Zr522       O526   2.371       .  S
Zr522       O525   2.388       .  S
Zr522       O550   2.373   1_545  S
Zr522       O552   2.371   1_545  S
O523        H564   0.990       .  S
O523        H567   0.990       .  S
O524        H557   0.990       .  S
O525       Zr545   2.377   1_545  S
O526       Zr546   2.379   1_545  S
O526        H553   0.966       .  S
O527       Zr539   2.366       .  S
O527        C529   1.276       .  A
O528       Zr546   2.466       .  S
O528        C529   1.290       .  A
C529        C763   1.460       .  S
O530       Zr542   2.507       .  S
O530        C532   1.300       .  A
O531       Zr545   2.366       .  S
O531        C532   1.276       .  A
C532       C1241   1.494       .  S
O533       Zr542   2.514       .  S
O533        C535   1.301       .  A
O534       Zr546   2.352       .  S
O534        C535   1.270       .  A
C535       C1061   1.495       .  S
O536       Zr539   2.375       .  S
O536        C538   1.279       .  A
O537       Zr545   2.497       .  S
O537        C538   1.292       .  A
Zr539       O540   2.427       .  S
Zr539       O541   2.422       .  S
Zr539       O547   2.342       .  S
Zr539       O548   2.333       .  S
Zr539       O551   2.334       .  S
Zr539       O549   2.357       .  S
O540        H560   0.989       .  S
O540        H565   0.987       .  S
O541        H561   0.990       .  S
Zr542       O543   2.435       .  S
Zr542       O544   2.433       .  S
Zr542       O548   2.378       .  S
Zr542       O547   2.381       .  S
Zr542       O552   2.378       .  S
Zr542       O550   2.388       .  S
O543        H559   0.990       .  S
O544        H558   0.990       .  S
O544        H568   0.990       .  S
Zr545       O548   2.386       .  S
Zr545       O550   2.417       .  S
Zr545       O551   2.361       .  S
Zr546       O547   2.386       .  S
Zr546       O549   2.350       .  S
Zr546       O552   2.401       .  S
O547        H555   0.966       .  S
O550        H554   0.965       .  S
O551        H556   0.965       .  S
O569       Zr581   2.349       .  S
O569        C571   1.270       .  A
O570       Zr607   2.491   1_554  S
O570        C571   1.292       .  A
O572       Zr584   2.490       .  S
O572        C574   1.298       .  A
O573       Zr608   2.358   1_554  S
O573        C574   1.274       .  A
C574        C891   1.475       .  S
O575       Zr584   2.477       .  S
O575        C577   1.293       .  A
O576       Zr607   2.431   1_554  S
O576        C577   1.288       .  A
C577       C1168   1.485       .  S
O578       Zr581   2.390       .  S
O578        C580   1.278       .  A
O579       Zr608   2.477   1_554  S
O579        C580   1.293       .  A
Zr581       O582   2.436       .  S
Zr581       O583   2.427       .  S
Zr581       O587   2.350       .  S
Zr581       O588   2.340       .  S
Zr581       O611   2.353       .  S
Zr581       O613   2.358       .  S
O582        H625   0.990       .  S
O583        H624   0.990       .  S
O583        H628   0.989       .  S
Zr584       O585   2.435       .  S
Zr584       O586   2.435       .  S
Zr584       O588   2.381       .  S
Zr584       O587   2.389       .  S
Zr584       O612   2.383   1_554  S
Zr584       O614   2.370   1_554  S
O585        H626   0.990       .  S
O585        H629   0.990       .  S
O586        H619   0.990       .  S
O587       Zr607   2.387   1_554  S
O588       Zr608   2.375   1_554  S
O588        H615   0.966       .  S
O589       Zr601   2.439       .  S
O589        C591   1.289       .  A
O590       Zr608   2.438       .  S
O590        C591   1.286       .  A
O592       Zr604   2.502       .  S
O592        C594   1.297       .  A
O593       Zr607   2.392       .  S
O593        C594   1.273       .  A
C594       C1118   1.491       .  S
O595       Zr604   2.526       .  S
O595        C597   1.303       .  A
O596       Zr608   2.373       .  S
O596        C597   1.273       .  A
C597        C851   1.507       .  S
O598       Zr601   2.392       .  S
O598        C600   1.280       .  A
O599       Zr607   2.485       .  S
O599        C600   1.288       .  A
C600        C698   1.499       .  S
Zr601       O602   2.411       .  S
Zr601       O603   2.433       .  S
Zr601       O609   2.358       .  S
Zr601       O610   2.359       .  S
Zr601       O613   2.351   1_556  S
Zr601       O611   2.345   1_556  S
O602        H622   0.989       .  S
O602        H627   0.986       .  S
O603        H623   0.990       .  S
Zr604       O605   2.434       .  S
Zr604       O606   2.436       .  S
Zr604       O610   2.385       .  S
Zr604       O609   2.387       .  S
Zr604       O614   2.368       .  S
Zr604       O612   2.392       .  S
O605        H621   0.990       .  S
O606        H620   0.990       .  S
O606        H630   0.990       .  S
Zr607       O610   2.393       .  S
Zr607       O612   2.428       .  S
Zr607       O613   2.379   1_556  S
Zr608       O609   2.382       .  S
Zr608       O611   2.347   1_556  S
Zr608       O614   2.403       .  S
O609        H617   0.966       .  S
O612        H616   0.965       .  S
O613        H618   0.966       .  S
O631       Zr643   2.374       .  S
O631        C633   1.275       .  A
O632       Zr669   2.481       .  S
O632        C633   1.287       .  A
O634       Zr646   2.508       .  S
O634        C636   1.300       .  A
O635       Zr670   2.336       .  S
O635        C636   1.273       .  A
C636        C961   1.483       .  S
O637       Zr646   2.505       .  S
O637        C639   1.298       .  A
O638       Zr669   2.377       .  S
O638        C639   1.280       .  A
C639       C1361   1.511       .  S
O640       Zr643   2.401       .  S
O640        C642   1.281       .  A
O641       Zr670   2.467       .  S
O641        C642   1.292       .  A
Zr643       O644   2.431       .  S
Zr643       O645   2.423       .  S
Zr643       O649   2.341       .  S
Zr643       O650   2.347       .  S
Zr643       O673   2.348       .  S
Zr643       O675   2.365       .  S
O644        H687   0.990       .  S
O645        H686   0.990       .  S
O645        H690   0.988       .  S
Zr646       O647   2.435       .  S
Zr646       O648   2.436       .  S
Zr646       O650   2.383       .  S
Zr646       O649   2.380       .  S
Zr646       O674   2.387       .  S
Zr646       O676   2.376       .  S
O647        H688   0.990       .  S
O647        H691   0.990       .  S
O648        H681   0.990       .  S
O649       Zr669   2.391       .  S
O650       Zr670   2.388       .  S
O650        H677   0.966       .  S
O651       Zr663   2.431       .  S
O651        C653   1.279       .  A
O652       Zr670   2.448   1_655  S
O652        C653   1.281       .  A
C653        C783   1.473       .  S
O654       Zr666   2.462       .  S
O654        C656   1.290       .  A
O655       Zr669   2.423   1_655  S
O655        C656   1.289       .  A
C656       C1221   1.478       .  S
O657       Zr666   2.464       .  S
O657        C659   1.292       .  A
O658       Zr670   2.396   1_655  S
O658        C659   1.281       .  A
C659        C818   1.463       .  S
O660       Zr663   2.383       .  S
O660        C662   1.280       .  A
O661       Zr669   2.469   1_655  S
O661        C662   1.289       .  A
C662        C718   1.482       .  S
Zr663       O664   2.417       .  S
Zr663       O665   2.431       .  S
Zr663       O671   2.362       .  S
Zr663       O672   2.374       .  S
Zr663       O675   2.355   1_655  S
Zr663       O673   2.344   1_655  S
O664        H684   0.989       .  S
O664        H689   0.989       .  S
O665        H685   0.990       .  S
Zr666       O667   2.434       .  S
Zr666       O668   2.436       .  S
Zr666       O672   2.380       .  S
Zr666       O671   2.381       .  S
Zr666       O676   2.369   1_655  S
Zr666       O674   2.381   1_655  S
O667        H683   0.990       .  S
O668        H682   0.990       .  S
O668        H692   0.990       .  S
Zr669       O672   2.380   1_455  S
Zr669       O674   2.414       .  S
Zr669       O675   2.382       .  S
Zr670       O671   2.386   1_455  S
Zr670       O673   2.356       .  S
Zr670       O676   2.399       .  S
O671        H679   0.965       .  S
O674        H678   0.965       .  S
O675        H680   0.966       .  S
O693       Zr705   2.488       .  S
O693        C695   1.296       .  A
O694       Zr731   2.378   1_545  S
O694        C695   1.282       .  A
C695       C1268   1.480       .  S
O696       Zr708   2.365       .  S
O696        C698   1.275       .  A
O697       Zr732   2.510   1_545  S
O697        C698   1.296       .  A
O699       Zr708   2.399       .  S
O699        C701   1.279       .  A
O700       Zr731   2.474   1_545  S
O700        C701   1.288       .  A
O702       Zr705   2.497       .  S
O702        C704   1.298       .  A
O703       Zr732   2.357   1_545  S
O703        C704   1.278       .  A
C704       C1111   1.484       .  S
Zr705       O706   2.435       .  S
Zr705       O707   2.434       .  S
Zr705       O711   2.391       .  S
Zr705       O712   2.376       .  S
Zr705       O735   2.379   1_545  S
Zr705       O737   2.380   1_545  S
O706        H749   0.990       .  S
O707        H748   0.990       .  S
O707        H752   0.990       .  S
Zr708       O709   2.432       .  S
Zr708       O710   2.424       .  S
Zr708       O712   2.351       .  S
Zr708       O711   2.339       .  S
Zr708       O736   2.351   1_545  S
Zr708       O738   2.359   1_545  S
O709        H750   0.989       .  S
O709        H753   0.989       .  S
O710        H743   0.990       .  S
O711       Zr731   2.377   1_545  S
O712       Zr732   2.397   1_545  S
O712        H739   0.965       .  S
O713       Zr725   2.436       .  S
O713        C715   1.285       .  A
O714       Zr732   2.439       .  S
O714        C715   1.291       .  A
C715       C1021   1.467       .  S
O716       Zr728   2.389       .  S
O716        C718   1.279       .  A
O717       Zr731   2.466       .  S
O717        C718   1.288       .  A
O719       Zr728   2.423       .  S
O719        C721   1.276       .  A
O720       Zr732   2.451       .  S
O720        C721   1.281       .  A
C721        C780   1.472       .  S
O722       Zr725   2.473       .  S
O722        C724   1.293       .  A
O723       Zr731   2.364       .  S
O723        C724   1.278       .  A
C724       C1231   1.479       .  S
Zr725       O726   2.435       .  S
Zr725       O727   2.434       .  S
Zr725       O733   2.384       .  S
Zr725       O734   2.365       .  S
Zr725       O737   2.361       .  S
Zr725       O735   2.386       .  S
O726        H746   0.990       .  S
O726        H751   0.990       .  S
O727        H747   0.990       .  S
Zr728       O729   2.420       .  S
Zr728       O730   2.421       .  S
Zr728       O734   2.358       .  S
Zr728       O733   2.357       .  S
Zr728       O738   2.346       .  S
Zr728       O736   2.350       .  S
O729        H745   0.990       .  S
O730        H744   0.989       .  S
O730        H754   0.986       .  S
Zr731       O734   2.385       .  S
Zr731       O736   2.362       .  S
Zr731       O737   2.409       .  S
Zr732       O733   2.400       .  S
Zr732       O735   2.407       .  S
Zr732       O738   2.377       .  S
O733        H741   0.966       .  S
O736        H740   0.966       .  S
O737        H742   0.965       .  S
O755       Zr767   2.523       .  S
O755        C757   1.301       .  A
O756       Zr793   2.354   1_554  S
O756        C757   1.276       .  A
C757       C1071   1.502       .  S
O758       Zr770   2.417       .  S
O758        C760   1.284       .  A
O759       Zr794   2.465   1_554  S
O759        C760   1.291       .  A
O761       Zr770   2.415       .  S
O761        C763   1.276       .  A
O762       Zr793   2.448   1_554  S
O762        C763   1.282       .  A
O764       Zr767   2.534       .  S
O764        C766   1.305       .  A
O765       Zr794   2.380   1_554  S
O765        C766   1.280       .  A
C766        C871   1.519       .  S
Zr767       O768   2.434       .  S
Zr767       O769   2.436       .  S
Zr767       O773   2.396       .  S
Zr767       O774   2.396       .  S
Zr767       O797   2.363       .  S
Zr767       O799   2.382   1_554  S
O768        H811   0.990       .  S
O769        H810   0.990       .  S
O769        H814   0.990       .  S
Zr770       O771   2.418       .  S
Zr770       O772   2.431       .  S
Zr770       O774   2.373       .  S
Zr770       O773   2.364       .  S
Zr770       O798   2.363   1_554  S
Zr770       O800   2.357   1_554  S
O771        H812   0.989       .  S
O771        H815   0.989       .  S
O772        H805   0.990       .  S
O773       Zr793   2.376   1_554  S
O774       Zr794   2.374   1_554  S
O774        H801   0.966       .  S
O775       Zr787   2.500       .  S
O775        C777   1.300       .  A
O776       Zr794   2.351       .  S
O776        C777   1.270       .  A
C777        C831   1.487       .  S
O778       Zr790   2.411       .  S
O778        C780   1.283       .  A
O779       Zr793   2.468       .  S
O779        C780   1.293       .  A
O781       Zr790   2.391       .  S
O781        C783   1.278       .  A
O782       Zr794   2.476       .  S
O782        C783   1.293       .  A
O784       Zr787   2.530       .  S
O784        C786   1.305       .  A
O785       Zr793   2.352       .  S
O785        C786   1.275       .  A
C786       C1028   1.495       .  S
Zr787       O788   2.435       .  S
Zr787       O789   2.434       .  S
Zr787       O795   2.397       .  S
Zr787       O796   2.378       .  S
Zr787       O799   2.366       .  S
Zr787       O797   2.381   1_556  S
O788        H808   0.990       .  S
O788        H813   0.990       .  S
O789        H809   0.990       .  S
Zr790       O791   2.432       .  S
Zr790       O792   2.430       .  S
Zr790       O796   2.352       .  S
Zr790       O795   2.348       .  S
Zr790       O800   2.368       .  S
Zr790       O798   2.341       .  S
O791        H807   0.990       .  S
O792        H806   0.990       .  S
O792        H816   0.990       .  S
Zr793       O796   2.368       .  S
Zr793       O798   2.348       .  S
Zr793       O799   2.410       .  S
Zr794       O795   2.386       .  S
Zr794       O797   2.403   1_556  S
Zr794       O800   2.343       .  S
O795        H803   0.966       .  S
O798        H802   0.965       .  S
O799        H804   0.965   1_556  S
C817        C818   1.400       .  A
C817        C822   1.401       .  A
C817        H824   1.084       .  S
C818        C819   1.399       .  A
C819        C820   1.397       .  A
C819       Br826   1.919       .  S
C820        C821   1.413       .  A
C820        H825   1.068       .  S
C821        C822   1.414       .  A
C822       Br823   1.914       .  S
C827        C828   1.387       .  A
C827        C832   1.382       .  A
C827        H834   1.076       .  S
C828        C829   1.415       .  A
C829        C830   1.406       .  A
C829       Br836   1.921       .  S
C830        C831   1.406       .  A
C830        H835   1.083       .  S
C831        C832   1.428       .  A
C832       Br833   1.932       .  S
C837        C838   1.405       .  A
C837        C842   1.404       .  A
C837        H844   1.083       .  S
C838        C839   1.439       .  A
C839        C840   1.383       .  A
C839       Br846   1.936       .  S
C840        C841   1.382       .  A
C840        H845   1.085       .  S
C841        C842   1.409       .  A
C842       Br843   1.915       .  S
C847        C848   1.391       .  A
C847        C852   1.389       .  A
C847        H854   1.080       .  S
C848        C849   1.412       .  A
C849        C850   1.415       .  A
C849       Br856   1.914       .  S
C850        C851   1.411       .  A
C850        H855   1.083       .  S
C851        C852   1.430       .  A
C852       Br853   1.926       .  S
C857        C858   1.407       .  A
C857        C862   1.403       .  A
C857        H864   1.083       .  S
C858        C859   1.429       .  A
C859        C860   1.376       .  A
C859       Br866   1.921   1_655  S
C860        C861   1.381       .  A
C860        H865   1.083       .  S
C861        C862   1.408       .  A
C862       Br863   1.916       .  S
C867        C868   1.412       .  A
C867        C872   1.418       .  A
C867        H874   1.083       .  S
C868        C869   1.406       .  A
C869        C870   1.397       .  A
C869       Br876   1.916       .  S
C870        C871   1.417       .  A
C870        H875   1.081       .  S
C871        C872   1.416       .  A
C872       Br873   1.916       .  S
C877        C878   1.396       .  A
C877        C882   1.399       .  A
C877        H884   1.084       .  S
C878        C879   1.405       .  A
C879        C880   1.409       .  A
C879       Br886   1.917       .  S
C880        C881   1.418       .  A
C880        H885   1.078       .  S
C881        C882   1.419       .  A
C882       Br883   1.907       .  S
C887        C888   1.394       .  A
C887        C892   1.386       .  A
C887        H894   1.082       .  S
C888        C889   1.414       .  A
C889        C890   1.403       .  A
C889       Br896   1.917       .  S
C890        C891   1.402       .  A
C890        H895   1.083       .  S
C891        C892   1.418       .  A
C892       Br893   1.921       .  S
C897        C898   1.411       .  A
C897        C902   1.422   1_554  A
C897        H904   1.082       .  S
C898        C899   1.412       .  A
C899        C900   1.396   1_554  A
C899       Br906   1.901       .  S
C900        C901   1.398       .  A
C900        H905   1.080       .  S
C901        C902   1.420       .  A
C902       Br903   1.906       .  S
C907        C908   1.408       .  A
C907        C912   1.418       .  A
C907        H914   1.083       .  S
C908        C909   1.417       .  A
C909        C910   1.391       .  A
C909       Br916   1.923       .  S
C910        C911   1.395       .  A
C910        H915   1.081       .  S
C911        C912   1.420       .  A
C912       Br913   1.918       .  S
C917        C918   1.388       .  A
C917        C922   1.382       .  A
C917        H924   1.078       .  S
C918        C919   1.413       .  A
C919        C920   1.414       .  A
C919       Br926   1.914       .  S
C920        C921   1.407       .  A
C920        H925   1.083       .  S
C921        C922   1.429       .  A
C922       Br923   1.928       .  S
C927        C928   1.418       .  A
C927        C932   1.407       .  A
C927        H934   1.083       .  S
C928        C929   1.423       .  A
C929        C930   1.389       .  A
C929       Br936   1.930       .  S
C930        C931   1.402       .  A
C930        H935   1.085       .  S
C931        C932   1.403       .  A
C932       Br933   1.915       .  S
C937        C938   1.403       .  A
C937        C942   1.414       .  A
C937        H944   1.083       .  S
C938        C939   1.395       .  A
C939        C940   1.386       .  A
C939       Br946   1.906       .  S
C940        C941   1.407       .  A
C940        H945   1.070       .  S
C941        C942   1.425       .  A
C942       Br943   1.918       .  S
C947        C948   1.414       .  A
C947        C952   1.420       .  A
C947        H954   1.073       .  S
C948        C949   1.423       .  A
C949        C950   1.401   1_455  A
C949       Br956   1.905       .  S
C950        C951   1.401       .  A
C950        H955   1.077       .  S
C951        C952   1.430   1_655  A
C952       Br953   1.923   1_455  S
C957        C958   1.410       .  A
C957        C962   1.406       .  A
C957        H964   1.083       .  S
C958        C959   1.396       .  A
C959        C960   1.384       .  A
C959       Br966   1.916       .  S
C960        C961   1.414       .  A
C960        H965   1.084       .  S
C961        C962   1.409       .  A
C962       Br963   1.916       .  S
C967        C968   1.403       .  A
C967        C972   1.415       .  A
C967        H974   1.083       .  S
C968        C969   1.393       .  A
C969        C970   1.390       .  A
C969       Br976   1.912       .  S
C970        C971   1.409       .  A
C970        H975   1.068       .  S
C971        C972   1.425       .  A
C972       Br973   1.917       .  S
C977        C978   1.398       .  A
C977        C982   1.386       .  A
C977        H984   1.079       .  S
C978        C979   1.424       .  A
C979        C980   1.412       .  A
C979       Br986   1.910       .  S
C980        C981   1.399       .  A
C980        H985   1.083       .  S
C981        C982   1.395       .  A
C982       Br983   1.896       .  S
C987        C988   1.407       .  A
C987        C992   1.408       .  A
C987        H994   1.083       .  S
C988        C989   1.429       .  A
C989        C990   1.386       .  A
C989       Br996   1.925       .  S
C990        C991   1.390       .  A
C990        H995   1.085       .  S
C991        C992   1.415       .  A
C992       Br993   1.918       .  S
C997        C998   1.402       .  A
C997       C1002   1.400   1_556  A
C997       H1004   1.083       .  S
C998        C999   1.422       .  A
C999       C1000   1.420   1_556  A
C999      Br1006   1.909       .  S
C1000      C1001   1.412       .  A
C1000      H1005   1.083       .  S
C1001      C1002   1.416       .  A
C1002     Br1003   1.913       .  S
C1007      C1008   1.420   1_455  A
C1007      C1012   1.428       .  A
C1007      H1014   1.082   1_455  S
C1008      C1009   1.421   1_655  A
C1009      C1010   1.410       .  A
C1009     Br1016   1.904   1_455  S
C1010      C1011   1.404       .  A
C1010      H1015   1.080       .  S
C1011      C1012   1.418       .  A
C1012     Br1013   1.917       .  S
C1017      C1018   1.409       .  A
C1017      C1022   1.400       .  A
C1017      H1024   1.073       .  S
C1018      C1019   1.416       .  A
C1019      C1020   1.403       .  A
C1019     Br1026   1.917       .  S
C1020      C1021   1.399       .  A
C1020      H1025   1.083       .  S
C1021      C1022   1.400       .  A
C1022     Br1023   1.923       .  S
C1027      C1028   1.411       .  A
C1027      C1032   1.393       .  A
C1027      H1034   1.084       .  S
C1028      C1029   1.408       .  A
C1029      C1030   1.413       .  A
C1029     Br1036   1.915       .  S
C1030      C1031   1.416       .  A
C1030      H1035   1.082       .  S
C1031      C1032   1.406       .  A
C1032     Br1033   1.909       .  S
C1037      C1038   1.387       .  A
C1037      C1042   1.382       .  A
C1037      H1044   1.083       .  S
C1038      C1039   1.415       .  A
C1039      C1040   1.410       .  A
C1039     Br1046   1.918       .  S
C1040      C1041   1.406       .  A
C1040      H1045   1.083       .  S
C1041      C1042   1.424       .  A
C1042     Br1043   1.923       .  S
C1047      C1048   1.390       .  A
C1047      C1052   1.387       .  A
C1047      H1054   1.077       .  S
C1048      C1049   1.411       .  A
C1049      C1050   1.410       .  A
C1049     Br1056   1.914       .  S
C1050      C1051   1.408       .  A
C1050      H1055   1.083       .  S
C1051      C1052   1.431       .  A
C1052     Br1053   1.934       .  S
C1057      C1058   1.383       .  A
C1057      C1062   1.384       .  A
C1057      H1064   1.076       .  S
C1058      C1059   1.414       .  A
C1059      C1060   1.411       .  A
C1059     Br1066   1.912       .  S
C1060      C1061   1.407       .  A
C1060      H1065   1.083       .  S
C1061      C1062   1.428       .  A
C1062     Br1063   1.933       .  S
C1067      C1068   1.413       .  A
C1067      C1072   1.414       .  A
C1067      H1074   1.083       .  S
C1068      C1069   1.407       .  A
C1069      C1070   1.384       .  A
C1069     Br1076   1.921       .  S
C1070      C1071   1.414       .  A
C1070      H1075   1.083       .  S
C1071      C1072   1.411       .  A
C1072     Br1073   1.915       .  S
C1077      C1078   1.399       .  A
C1077      C1082   1.388       .  A
C1077      H1084   1.082       .  S
C1078      C1079   1.425       .  A
C1079      C1080   1.410       .  A
C1079     Br1086   1.913       .  S
C1080      C1081   1.401       .  A
C1080      H1085   1.083       .  S
C1081      C1082   1.413       .  A
C1082     Br1083   1.909       .  S
C1087      C1088   1.409       .  A
C1087      C1092   1.390       .  A
C1087      H1094   1.068       .  S
C1088      C1089   1.425       .  A
C1089      C1090   1.412       .  A
C1089     Br1096   1.918       .  S
C1090      C1091   1.401       .  A
C1090      H1095   1.083       .  S
C1091      C1092   1.395       .  A
C1092     Br1093   1.909   1_554  S
C1097      C1098   1.399       .  A
C1097      C1102   1.399   1_554  A
C1097      H1104   1.068       .  S
C1098      C1099   1.416       .  A
C1099      C1100   1.426   1_554  A
C1099     Br1106   1.912       .  S
C1100      C1101   1.418       .  A
C1100      H1105   1.080       .  S
C1101      C1102   1.413       .  A
C1102     Br1103   1.917       .  S
C1107      C1108   1.408       .  A
C1107      C1112   1.405       .  A
C1107      H1114   1.083       .  S
C1108      C1109   1.407       .  A
C1109      C1110   1.386       .  A
C1109     Br1116   1.938       .  S
C1110      C1111   1.413       .  A
C1110      H1115   1.084       .  S
C1111      C1112   1.408       .  A
C1112     Br1113   1.916       .  S
C1117      C1118   1.409       .  A
C1117      C1122   1.414       .  A
C1117      H1124   1.083       .  S
C1118      C1119   1.423       .  A
C1119      C1120   1.387       .  A
C1119     Br1126   1.933       .  S
C1120      C1121   1.390       .  A
C1120      H1125   1.073       .  S
C1121      C1122   1.413       .  A
C1122     Br1123   1.915       .  S
C1127      C1128   1.409       .  A
C1127      C1132   1.414       .  A
C1127      H1134   1.083       .  S
C1128      C1129   1.425       .  A
C1129      C1130   1.383       .  A
C1129     Br1136   1.929       .  S
C1130      C1131   1.384       .  A
C1130      H1135   1.079       .  S
C1131      C1132   1.413       .  A
C1132     Br1133   1.914       .  S
C1137      C1138   1.416       .  A
C1137      C1142   1.384       .  A
C1137      H1144   1.082       .  S
C1138      C1139   1.416       .  A
C1139      C1140   1.414       .  A
C1139     Br1146   1.916       .  S
C1140      C1141   1.409       .  A
C1140      H1145   1.083       .  S
C1141      C1142   1.393       .  A
C1142     Br1143   1.905       .  S
C1147      C1148   1.419   1_565  A
C1147      C1152   1.431       .  A
C1147      H1154   1.081   1_565  S
C1148      C1149   1.413   1_545  A
C1149      C1150   1.402       .  A
C1149     Br1156   1.906       .  S
C1150      C1151   1.404       .  A
C1150      H1155   1.074       .  S
C1151      C1152   1.432       .  A
C1152     Br1153   1.907       .  S
C1157      C1158   1.403       .  A
C1157      C1162   1.380       .  A
C1157      H1164   1.081       .  S
C1158      C1159   1.408       .  A
C1159      C1160   1.407       .  A
C1159     Br1166   1.917       .  S
C1160      C1161   1.410       .  A
C1160      H1165   1.080       .  S
C1161      C1162   1.403       .  A
C1162     Br1163   1.896       .  S
C1167      C1168   1.400       .  A
C1167      C1172   1.414       .  A
C1167      H1174   1.083       .  S
C1168      C1169   1.394       .  A
C1169      C1170   1.397       .  A
C1169     Br1176   1.914       .  S
C1170      C1171   1.413       .  A
C1170      H1175   1.068       .  S
C1171      C1172   1.425       .  A
C1172     Br1173   1.917       .  S
C1177      C1178   1.415       .  A
C1177      C1182   1.420       .  A
C1177      H1184   1.083       .  S
C1178      C1179   1.422       .  A
C1179      C1180   1.377       .  A
C1179     Br1186   1.937       .  S
C1180      C1181   1.387       .  A
C1180      H1185   1.062       .  S
C1181      C1182   1.413       .  A
C1182     Br1183   1.914       .  S
C1187      C1188   1.407       .  A
C1187      C1192   1.410       .  A
C1187      H1194   1.083       .  S
C1188      C1189   1.397       .  A
C1189      C1190   1.382       .  A
C1189     Br1196   1.905       .  S
C1190      C1191   1.413       .  A
C1190      H1195   1.082       .  S
C1191      C1192   1.416       .  A
C1192     Br1193   1.918       .  S
C1197      C1198   1.395   1_565  A
C1197      C1202   1.392       .  A
C1197      H1204   1.076   1_565  S
C1198      C1199   1.417   1_545  A
C1199      C1200   1.425       .  A
C1199     Br1206   1.911   1_565  S
C1200      C1201   1.419       .  A
C1200      H1205   1.082       .  S
C1201      C1202   1.417       .  A
C1202     Br1203   1.910       .  S
C1207      C1208   1.394       .  A
C1207      C1212   1.395   1_556  A
C1207      H1214   1.085       .  S
C1208      C1209   1.419       .  A
C1209      C1210   1.433   1_556  A
C1209     Br1216   1.911       .  S
C1210      C1211   1.420       .  A
C1210      H1215   1.082       .  S
C1211      C1212   1.418       .  A
C1212     Br1213   1.885       .  S
C1217      C1218   1.403       .  A
C1217      C1222   1.379       .  A
C1217      H1224   1.069       .  S
C1218      C1219   1.423       .  A
C1219      C1220   1.414       .  A
C1219     Br1226   1.917       .  S
C1220      C1221   1.403       .  A
C1220      H1225   1.083       .  S
C1221      C1222   1.396       .  A
C1222     Br1223   1.901   1_655  S
C1227      C1228   1.408       .  A
C1227      C1232   1.404       .  A
C1227      H1234   1.082       .  S
C1228      C1229   1.413       .  A
C1229      C1230   1.382       .  A
C1229     Br1236   1.914       .  S
C1230      C1231   1.403       .  A
C1230      H1235   1.084       .  S
C1231      C1232   1.408       .  A
C1232     Br1233   1.917       .  S
C1237      C1238   1.385       .  A
C1237      C1242   1.373       .  A
C1237      H1244   1.069       .  S
C1238      C1239   1.413       .  A
C1239      C1240   1.418       .  A
C1239     Br1246   1.914       .  S
C1240      C1241   1.412       .  A
C1240      H1245   1.083       .  S
C1241      C1242   1.420       .  A
C1242     Br1243   1.924       .  S
C1247      C1248   1.408       .  A
C1247      C1252   1.383       .  A
C1247      H1254   1.084       .  S
C1248      C1249   1.408       .  A
C1249      C1250   1.412       .  A
C1249     Br1256   1.915       .  S
C1250      C1251   1.414       .  A
C1250      H1255   1.083       .  S
C1251      C1252   1.412       .  A
C1252     Br1253   1.918       .  S
C1257      C1258   1.403       .  A
C1257      C1262   1.383       .  A
C1257      H1264   1.085       .  S
C1258      C1259   1.414       .  A
C1259      C1260   1.421       .  A
C1259     Br1266   1.915       .  S
C1260      C1261   1.418       .  A
C1260      H1265   1.082       .  S
C1261      C1262   1.406       .  A
C1262     Br1263   1.898       .  S
C1267      C1268   1.404       .  A
C1267      C1272   1.385       .  A
C1267      H1274   1.084   1_545  S
C1268      C1269   1.406       .  A
C1269      C1270   1.407       .  A
C1269     Br1276   1.915       .  S
C1270      C1271   1.413       .  A
C1270      H1275   1.083       .  S
C1271      C1272   1.415       .  A
C1272     Br1273   1.924   1_545  S
C1277      C1278   1.411       .  A
C1277      C1282   1.417       .  A
C1277      H1284   1.083       .  S
C1278      C1279   1.429       .  A
C1279      C1280   1.391       .  A
C1279     Br1286   1.929       .  S
C1280      C1281   1.390       .  A
C1280      H1285   1.071       .  S
C1281      C1282   1.418       .  A
C1282     Br1283   1.921       .  S
C1287      C1288   1.413       .  A
C1287      C1292   1.377       .  A
C1287      H1294   1.054       .  S
C1288      C1289   1.423       .  A
C1289      C1290   1.412       .  A
C1289     Br1296   1.910       .  S
C1290      C1291   1.399       .  A
C1290      H1295   1.083       .  S
C1291      C1292   1.390       .  A
C1292     Br1293   1.915   1_545  S
C1297      C1298   1.419   1_565  A
C1297      C1302   1.426       .  A
C1297      H1304   1.083   1_565  S
C1298      C1299   1.417   1_545  A
C1299      C1300   1.391       .  A
C1299     Br1306   1.908   1_565  S
C1300      C1301   1.399       .  A
C1300      H1305   1.073       .  S
C1301      C1302   1.423       .  A
C1302     Br1303   1.908       .  S
C1307      C1308   1.408       .  A
C1307      C1312   1.408       .  A
C1307      H1314   1.083       .  S
C1308      C1309   1.430       .  A
C1309      C1310   1.386       .  A
C1309     Br1316   1.935       .  S
C1310      C1311   1.386       .  A
C1310      H1315   1.080       .  S
C1311      C1312   1.409       .  A
C1312     Br1313   1.917       .  S
C1317      C1318   1.409       .  A
C1317      C1322   1.410       .  A
C1317      H1324   1.083       .  S
C1318      C1319   1.429       .  A
C1319      C1320   1.388       .  A
C1319     Br1326   1.925       .  S
C1320      C1321   1.390       .  A
C1320      H1325   1.082       .  S
C1321      C1322   1.409       .  A
C1322     Br1323   1.915       .  S
C1327      C1328   1.409       .  A
C1327      C1332   1.386       .  A
C1327      H1334   1.084       .  S
C1328      C1329   1.405       .  A
C1329      C1330   1.401       .  A
C1329     Br1336   1.917       .  S
C1330      C1331   1.409       .  A
C1330      H1335   1.081       .  S
C1331      C1332   1.404       .  A
C1332     Br1333   1.913       .  S
C1337      C1338   1.409       .  A
C1337      C1342   1.398       .  A
C1337      H1344   1.069       .  S
C1338      C1339   1.419       .  A
C1339      C1340   1.406       .  A
C1339     Br1346   1.917       .  S
C1340      C1341   1.399       .  A
C1340      H1345   1.083       .  S
C1341      C1342   1.398       .  A
C1342     Br1343   1.919       .  S
C1347      C1348   1.398       .  A
C1347      C1352   1.396       .  A
C1347      H1354   1.080       .  S
C1348      C1349   1.417       .  A
C1349      C1350   1.421       .  A
C1349     Br1356   1.912       .  S
C1350      C1351   1.412   1_455  A
C1350      H1355   1.079   1_455  S
C1351      C1352   1.415   1_655  A
C1352     Br1353   1.907   1_455  S
C1357      C1358   1.414       .  A
C1357      C1362   1.420       .  A
C1357      H1364   1.083       .  S
C1358      C1359   1.405       .  A
C1359      C1360   1.383       .  A
C1359     Br1366   1.906       .  S
C1360      C1361   1.411       .  A
C1360      H1365   1.083       .  S
C1361      C1362   1.417       .  A
C1362     Br1363   1.915       .  S
C1367      C1368   1.416       .  A
C1367      C1372   1.413       .  A
C1367      H1374   1.083       .  S
C1368      C1369   1.409       .  A
C1369      C1370   1.387       .  A
C1369     Br1376   1.913       .  S
C1370      C1371   1.404       .  A
C1370      H1375   1.076       .  S
C1371      C1372   1.409       .  A
C1372     Br1373   1.915       .  S
C1377      C1378   1.407       .  A
C1377      C1382   1.419       .  A
C1377      H1384   1.083       .  S
C1378      C1379   1.393       .  A
C1379      C1380   1.389       .  A
C1379     Br1386   1.909       .  S
C1380      C1381   1.408       .  A
C1380      H1385   1.072       .  S
C1381      C1382   1.425       .  A
C1382     Br1383   1.917       .  S
C1387      C1388   1.410       .  A
C1387      C1392   1.405       .  A
C1387      H1394   1.078       .  S
C1388      C1389   1.409       .  A
C1389      C1390   1.403       .  A
C1389     Br1396   1.912       .  S
C1390      C1391   1.402       .  A
C1390      H1395   1.082       .  S
C1391      C1392   1.410       .  A
C1392     Br1393   1.908       .  S
C1397      C1398   1.416       .  A
C1397      C1402   1.423       .  A
C1397      H1404   1.083       .  S
C1398      C1399   1.421       .  A
C1399      C1400   1.410   1_565  A
C1399     Br1406   1.917       .  S
C1400      C1401   1.406       .  A
C1400      H1405   1.076       .  S
C1401      C1402   1.421   1_545  A
C1402     Br1403   1.913   1_565  S
C1407      C1408   1.389       .  A
C1407      C1412   1.385       .  A
C1407      H1414   1.079       .  S
C1408      C1409   1.417       .  A
C1409      C1410   1.426       .  A
C1409     Br1416   1.912       .  S
C1410      C1411   1.418   1_455  A
C1410      H1415   1.082   1_455  S
C1411      C1412   1.416   1_655  A
C1412     Br1413   1.905   1_455  S
