geometry optimzed in LAMMPS
_audit_creation_date              2020-12-01 
_audit_creation_method            'lammps2cif' 
_symmetry_space_group_name_H-M    'P1' 
_symmetry_Int_Tables_number       1 
_symmetry_cell_setting            triclinic 
loop_ 
_symmetry_equiv_pos_as_xyz 
  x,y,z 
_cell_length_a                    34.46134642 
_cell_length_b                    38.47424035083849 
_cell_length_c                    22.239906801209507 
_cell_angle_alpha                 89.99956079264022 
_cell_angle_beta                  90.00176533055435 
_cell_angle_gamma                 90.00188575711934 
loop_ 
_atom_site_label 
_atom_site_type_symbol 
_atom_site_fract_x 
_atom_site_fract_y 
_atom_site_fract_z 
_atom_site_charge 
N1          N  0.49996460  0.49283310  0.34114312    -0.32700
N2          N  0.56008090  0.50045668  0.25060540    -0.53200
N3          N  0.49997045  0.00812380  0.16004767    -0.32700
N4          N  0.43985386  0.00052203  0.25060648    -0.53200
C5          C  0.53150742  0.50041001  0.37511973     0.30900
C6          C  0.46843407  0.00044473  0.37511945     0.30900
C7          C  0.53150370  0.50050558  0.12607714     0.30900
C8          C  0.46842549  0.00053681  0.12607804     0.30900
C9          C  0.58354597  0.49652499  0.29870787     0.39500
C10         C  0.58355259  0.50433573  0.20250108     0.39500
C11         C  0.41638578  0.99661764  0.29870968     0.39500
C12         C  0.41638523  0.00442508  0.20250295     0.39500
C13         C  0.51987375  0.51368495  0.43003929    -0.18000
C14         C  0.48008860  0.01370671  0.43003913    -0.18000
C15         C  0.51984731  0.48723588  0.07116304    -0.18000
C16         C  0.48006202  0.98725562  0.07116333    -0.18000
C17         C  0.62212449  0.49775481  0.28113710    -0.19000
C18         C  0.62212941  0.50303233  0.22007450    -0.19000
C19         C  0.37780793  0.99789015  0.28114094    -0.19000
C20         C  0.37780735  0.00316555  0.22007790    -0.19000
C21         C  0.57063210  0.49544604  0.35866027    -0.14400
C22         C  0.42930201  0.99552264  0.35866062    -0.14400
C23         C  0.42929502  0.00547834  0.14254624    -0.14400
C24         C  0.57064130  0.50540816  0.14254450    -0.14400
H25         H  0.53830089  0.52367812  0.46541648     0.18500
H26         H  0.46167683  0.02371987  0.46541618     0.18500
H27         H  0.53825712  0.47721258  0.03579202     0.18500
H28         H  0.46163776  0.97725131  0.03579171     0.18500
H29         H  0.64756861  0.49595254  0.30951231     0.16800
H30         H  0.64757746  0.50477592  0.19169894     0.16800
H31         H  0.35236284  0.99611684  0.30951737     0.16800
H32         H  0.35236026  0.00493639  0.19170309     0.16800
H33         H  0.49995452  0.48011583  0.29976661     0.30100
H34         H  0.49997999  0.02083927  0.20142531     0.30100
C35         C  0.35353126  0.00034997  0.50062230     0.01500
C36         C  0.64640621  0.00026638  0.50062007     0.01500
N37         N  0.49999172  0.24213611  0.15980130    -0.32700
N38         N  0.56010455  0.24975601  0.25036958    -0.53200
N39         N  0.49998988  0.25742975  0.34089590    -0.32700
N40         N  0.43987746  0.24977382  0.25035918    -0.53200
C41         C  0.53153449  0.24974176  0.12583779     0.30900
C42         C  0.46845310  0.24974876  0.12583159     0.30900
C43         C  0.53152294  0.24983751  0.37487872     0.30900
C44         C  0.46845273  0.24984560  0.37487367     0.30900
C45         C  0.58357808  0.24587341  0.20226894     0.39500
C46         C  0.58356775  0.25368311  0.29847506     0.39500
C47         C  0.41640493  0.24589577  0.20225356     0.39500
C48         C  0.41641318  0.25370642  0.29846008     0.39500
C49         C  0.51988995  0.26302648  0.07092900    -0.18000
C50         C  0.48010464  0.26303079  0.07092505    -0.18000
C51         C  0.51987700  0.23657787  0.42980441    -0.18000
C52         C  0.48009184  0.23658284  0.42980108    -0.18000
C53         C  0.62215437  0.24716252  0.21985085    -0.19000
C54         C  0.62214715  0.25243932  0.28091344    -0.19000
C55         C  0.37782836  0.24719449  0.21982756    -0.19000
C56         C  0.37783442  0.25247198  0.28089002    -0.19000
C57         C  0.57067128  0.24482422  0.14230825    -0.14400
C58         C  0.42931390  0.24484068  0.14229514    -0.14400
C59         C  0.42932936  0.25480251  0.35841051    -0.14400
C60         C  0.57064855  0.25478442  0.35842193    -0.14400
H61         H  0.53830831  0.27304621  0.03556460     0.18500
H62         H  0.46169124  0.27305500  0.03555750     0.18500
H63         H  0.53829504  0.22657977  0.46518825     0.18500
H64         H  0.46166880  0.22658953  0.46518184     0.18500
H65         H  0.64760394  0.24541563  0.19147979     0.16800
H66         H  0.64758970  0.25423776  0.30929322     0.16800
H67         H  0.35237945  0.24545260  0.19145139     0.16800
H68         H  0.35239119  0.25427600  0.30926450     0.16800
H69         H  0.49998834  0.22941835  0.20117717     0.30100
H70         H  0.49999332  0.27014483  0.29951709     0.30100
C71         C  0.35355184  0.25003391  0.50034613     0.01500
C72         C  0.64642671  0.24998881  0.50035426     0.01500
N73         N  0.99998222  0.24217616  0.09026713    -0.32700
N74         N  0.06009439  0.24984943  0.49972242    -0.53200
N75         N  0.99997980  0.25746487  0.40917062    -0.32700
N76         N  0.93986759  0.24977231  0.49970312    -0.53200
C77         C  0.03151377  0.24980395  0.12423928     0.30900
C78         C  0.96843600  0.24976351  0.12422941     0.30900
C79         C  0.03152373  0.24989395  0.37519639     0.30900
C80         C  0.96844974  0.24985679  0.37518609     0.30900
C81         C  0.08356439  0.24596488  0.04782970     0.39500
C82         C  0.08356135  0.25377057  0.45162228     0.39500
C83         C  0.91639901  0.24585310  0.04780185     0.39500
C84         C  0.91639927  0.25366254  0.45159486     0.39500
C85         C  0.01985522  0.26308165  0.17914438    -0.18000
C86         C  0.98006982  0.26305634  0.17913822    -0.18000
C87         C  0.01989095  0.23662860  0.32026725    -0.18000
C88         C  0.98010588  0.23660514  0.32026104    -0.18000
C89         C  0.12214187  0.24725501  0.03026122    -0.19000
C90         C  0.12213949  0.25252918  0.46919791    -0.19000
C91         C  0.87782137  0.24708819  0.03021909    -0.19000
C92         C  0.87782144  0.25236471  0.46915635    -0.19000
C93         C  0.07065123  0.24489764  0.10778361    -0.14400
C94         C  0.92930713  0.24480737  0.10776112    -0.14400
C95         C  0.92931625  0.25476675  0.39164518    -0.14400
C96         C  0.07064903  0.25485043  0.39166803    -0.14400
H97         H  0.03826376  0.27311117  0.21451449     0.18500
H98         H  0.96164342  0.27306203  0.21450331     0.18500
H99         H  0.03831834  0.22664081  0.28488826     0.18500
H100        H  0.96169529  0.22659462  0.28487761     0.18500
H101        H  0.14758875  0.24550370  0.05863999     0.16800
H102        H  0.14758481  0.25432096  0.44082549     0.16800
H103        H  0.85237439  0.24529950  0.05858837     0.16800
H104        H  0.85237627  0.25412093  0.44077488     0.16800
H105        H  0.99999391  0.22945229  0.04889699     0.30100
H106        H  0.99996869  0.27017364  0.45055448     0.30100
C107        C  0.14641925  0.24998892  0.24972558     0.01500
C108        C  0.85354203  0.24989661  0.24968861     0.01500
N109        N  0.99997939  0.50769941  0.09069053    -0.32700
N110        N  0.93986477  0.50005909  0.50014601    -0.53200
N111        N  0.99997713  0.49240945  0.40959526    -0.32700
N112        N  0.06009180  0.50005760  0.50014443    -0.53200
C113        C  0.96844166  0.50009470  0.12466034     0.30900
C114        C  0.03151808  0.50009482  0.12465967     0.30900
C115        C  0.96843964  0.50000459  0.37561826     0.30900
C116        C  0.03151498  0.49999917  0.37561696     0.30900
C117        C  0.91639682  0.50396489  0.04824836     0.39500
C118        C  0.91639592  0.49615945  0.45204138     0.39500
C119        C  0.08356098  0.50396524  0.04824797     0.39500
C120        C  0.08355943  0.49615388  0.45204148     0.39500
C121        C  0.98008774  0.48680959  0.17956768    -0.18000
C122        C  0.01987353  0.48680943  0.17956703    -0.18000
C123        C  0.98008536  0.51326225  0.32069059    -0.18000
C124        C  0.01987012  0.51325895  0.32068987    -0.18000
C125        C  0.87781891  0.50270360  0.03067480    -0.19000
C126        C  0.87781819  0.49742952  0.46961174    -0.19000
C127        C  0.12213836  0.50270202  0.03067628    -0.19000
C128        C  0.12213747  0.49742409  0.46961382    -0.19000
C129        C  0.92931033  0.50503600  0.10820275    -0.14400
C130        C  0.07064900  0.50503733  0.10820240    -0.14400
C131        C  0.07064619  0.49507427  0.39208706    -0.14400
C132        C  0.92930804  0.49508374  0.39208778    -0.14400
H133        H  0.96166956  0.47679516  0.21493676     0.18500
H134        H  0.03829272  0.47679473  0.21493550     0.18500
H135        H  0.96166809  0.52326556  0.28531010     0.18500
H136        H  0.03828822  0.52326019  0.28530984     0.18500
H137        H  0.85237315  0.50447765  0.05904931     0.16800
H138        H  0.85237176  0.49566060  0.44123509     0.16800
H139        H  0.14758476  0.50447613  0.05905205     0.16800
H140        H  0.14758330  0.49565201  0.44123899     0.16800
H141        H  0.99997913  0.52042596  0.04932229     0.30100
H142        H  0.99997641  0.47970322  0.45098153     0.30100
C143        C  0.14641692  0.00007822  0.25015924     0.01500
C144        C  0.85353984  0.50005813  0.25014431     0.01500
O145        O  0.79993397  0.09029659  0.36771389    -0.67800
O146        O  0.74412691  0.15994120  0.45261411    -0.68100
O147        O  0.74413648  0.09031407  0.45278782    -0.67900
O148        O  0.79991639  0.15984242  0.36753407    -0.67900
O149        O  0.75584516  0.15981973  0.29751024    -0.67900
O150        O  0.70006729  0.09029134  0.38276085    -0.67900
O151        O  0.70005174  0.15983508  0.38259630    -0.67800
O152        O  0.75586522  0.09018541  0.29768699    -0.68000
V153        V  0.77118752  0.12509752  0.40877412     1.35200
V154        V  0.72879844  0.12503424  0.34152391     1.35200
C155        C  0.78757269  0.07874469  0.31811937     0.81400
C156        C  0.71241604  0.17137828  0.43219774     0.81500
C157        C  0.71243266  0.07882980  0.43241578     0.81300
C158        C  0.78754674  0.17130754  0.31788332     0.81300
O159        O  0.70000029  0.40984429  0.11801625    -0.67800
O160        O  0.75602017  0.34018377  0.20257112    -0.68100
O161        O  0.75599324  0.40982023  0.20276577    -0.67900
O162        O  0.70002491  0.34028778  0.11783409    -0.67900
O163        O  0.74392525  0.34031853  0.04755740    -0.67900
O164        O  0.79989743  0.40985676  0.13249425    -0.67900
O165        O  0.79992414  0.34030320  0.13230035    -0.67800
O166        O  0.74390464  0.40996218  0.04774617    -0.68000
V167        V  0.72884750  0.37503579  0.15890430     1.35200
V168        V  0.77107464  0.37510917  0.09141414     1.35200
C169        C  0.71225421  0.42141185  0.06836774     0.81400
C170        C  0.78767237  0.32873705  0.18195038     0.81500
C171        C  0.78763690  0.42132256  0.18220807     0.81300
C172        C  0.71228589  0.32881093  0.06813012     0.81300
O173        O  0.20000082  0.15990671  0.36755677    -0.67800
O174        O  0.25578089  0.09038442  0.45281922    -0.68100
O175        O  0.25579842  0.16001198  0.45263036    -0.67900
O176        O  0.19997697  0.09035918  0.36775037    -0.67900
O177        O  0.24403890  0.09024628  0.29771758    -0.67900
O178        O  0.29986895  0.15989657  0.38260991    -0.67900
O179        O  0.29984194  0.09035387  0.38278382    -0.67800
O180        O  0.24406846  0.15988085  0.29753155    -0.68000
V181        V  0.22872970  0.12516459  0.40880079     1.35200
V182        V  0.27111318  0.12509598  0.34154612     1.35200
C183        C  0.21236981  0.17137047  0.31790556     0.81400
C184        C  0.28748021  0.07889677  0.43244288     0.81500
C185        C  0.28751073  0.17144446  0.43220973     0.81300
C186        C  0.21233436  0.07880358  0.31815700     0.81300
O187        O  0.29997921  0.34034500  0.11785435    -0.67800
O188        O  0.24401044  0.40988108  0.20276924    -0.68100
O189        O  0.24398993  0.34024490  0.20260075    -0.67900
O190        O  0.29999465  0.40990200  0.11801133    -0.67900
O191        O  0.25607982  0.41000842  0.04775251    -0.67900
O192        O  0.20008332  0.34034644  0.13232942    -0.67900
O193        O  0.20009642  0.40989852  0.13250852    -0.67800
O194        O  0.25607526  0.34036526  0.04757919    -0.66400
V195        V  0.27115590  0.37509442  0.15891646     1.35200
V196        V  0.22892237  0.37515357  0.09143187     1.35200
C197        C  0.28771789  0.32886403  0.06815135     0.81400
C198        C  0.21236098  0.42137352  0.18221561     0.81500
C199        C  0.21233729  0.32879174  0.18198600     0.81300
C200        C  0.28773067  0.42146515  0.06836507     0.81300
C201        C  0.80938532  0.44719385  0.21426008    -0.09300
C202        C  0.82899009  0.47010484  0.23550617    -0.10900
C203        C  0.82893509  0.02997728  0.26478756    -0.09300
C204        C  0.80930052  0.05286449  0.28604826    -0.10900
C205        C  0.17099174  0.47014252  0.23551665    -0.09300
C206        C  0.19060813  0.44724138  0.21426728    -0.10900
C207        C  0.17099493  0.03001403  0.26482481    -0.09300
C208        C  0.19061033  0.05291378  0.28609509    -0.10900
C209        C  0.09921697  0.00723969  0.15603245    -0.09300
C210        C  0.12151293  0.00681857  0.19793238    -0.10900
C211        C  0.09921503  0.49288714  0.34426513    -0.09300
C212        C  0.12151028  0.49332825  0.30237103    -0.10900
C213        C  0.87844502  0.49333060  0.30236711    -0.09300
C214        C  0.90073855  0.49289766  0.34426504    -0.10900
C215        C  0.90074285  0.00723505  0.15603048    -0.09300
C216        C  0.87844428  0.00680837  0.19792445    -0.10900
C217        C  0.80925704  0.19714660  0.28568601    -0.09300
C218        C  0.82889638  0.22000867  0.26435457    -0.10900
C219        C  0.80943998  0.30281886  0.21386581    -0.09300
C220        C  0.82903451  0.27988043  0.23505091    -0.10900
C221        C  0.17095412  0.27995652  0.23509997    -0.09300
C222        C  0.19056681  0.30288282  0.21391671    -0.10900
C223        C  0.17103864  0.22008454  0.26438504    -0.09300
C224        C  0.19066488  0.19721310  0.28571168    -0.10900
C225        C  0.12152538  0.24321575  0.19750202    -0.09300
C226        C  0.09922437  0.24274872  0.15561154    -0.10900
C227        C  0.09921282  0.25708731  0.34384553    -0.09300
C228        C  0.12150363  0.25669459  0.30194398    -0.10900
C229        C  0.90075523  0.25698519  0.34381252    -0.09300
C230        C  0.87846450  0.25659128  0.30190785    -0.10900
C231        C  0.87843006  0.24310427  0.19746858    -0.09300
C232        C  0.90073105  0.24263724  0.15558003    -0.10900
C233        C  0.69054436  0.30291197  0.03612597    -0.09300
C234        C  0.67094513  0.27997291  0.01495207    -0.10900
C235        C  0.69068904  0.19723685  0.46431510    -0.09300
C236        C  0.67105992  0.22010086  0.48565658    -0.10900
C237        C  0.32889564  0.22015778  0.48565362    -0.09300
C238        C  0.30924908  0.19730084  0.46432089    -0.10900
C239        C  0.30946195  0.30296790  0.03614549    -0.09300
C240        C  0.32905378  0.28002838  0.01495925    -0.10900
C241        C  0.40077578  0.25707330  0.40623931    -0.09300
C242        C  0.37848746  0.25671376  0.44814342    -0.10900
C243        C  0.37842692  0.24322513  0.05258291    -0.09300
C244        C  0.40073054  0.24272313  0.09447187    -0.10900
C245        C  0.59920053  0.25704795  0.40625457    -0.09300
C246        C  0.62148916  0.25667928  0.44815863    -0.10900
C247        C  0.59925501  0.24270045  0.09448975    -0.09300
C248        C  0.62155553  0.24319403  0.05259879    -0.10900
C249        C  0.69071322  0.05300015  0.46461964    -0.09300
C250        C  0.67106340  0.03014628  0.48595349    -0.10900
C251        C  0.69049150  0.44733468  0.03645375    -0.09300
C252        C  0.67090331  0.47027657  0.01526468    -0.10900
C253        C  0.32905214  0.47034724  0.01525889    -0.09300
C254        C  0.30947962  0.44739444  0.03644664    -0.10900
C255        C  0.32885838  0.03021933  0.48596944    -0.09300
C256        C  0.30920010  0.05306906  0.46464565    -0.10900
C257        C  0.40071815  0.00763800  0.09472721    -0.09300
C258        C  0.37841653  0.00715867  0.05283937    -0.10900
C259        C  0.40074293  0.49329573  0.40649239    -0.09300
C260        C  0.37845479  0.49367731  0.44839857    -0.10900
C261        C  0.62148218  0.49357864  0.44839863    -0.09300
C262        C  0.59919218  0.49319932  0.40649177    -0.10900
C263        C  0.62151979  0.00706923  0.05283713    -0.09300
C264        C  0.59921810  0.00755123  0.09472380    -0.10900
N265        N  0.49996458  0.49283295  0.84114286    -0.32700
N266        N  0.56008088  0.50045664  0.75060539    -0.53200
N267        N  0.49997041  0.00812392  0.66004791    -0.32700
N268        N  0.43985386  0.00052205  0.75060643    -0.53200
C269        C  0.53150743  0.50041006  0.87511965     0.30900
C270        C  0.46843407  0.00044463  0.87511940     0.30900
C271        C  0.53150371  0.50050559  0.62607722     0.30900
C272        C  0.46842549  0.00053690  0.62607802     0.30900
C273        C  0.58354598  0.49652500  0.79870783     0.39500
C274        C  0.58355257  0.50433576  0.70250105     0.39500
C275        C  0.41638580  0.99661760  0.79870967     0.39500
C276        C  0.41638519  0.00442502  0.70250288     0.39500
C277        C  0.51987368  0.51368507  0.93003917    -0.18000
C278        C  0.48008855  0.01370672  0.93003905    -0.18000
C279        C  0.51984737  0.48723587  0.57116304    -0.18000
C280        C  0.48006208  0.98725563  0.57116339    -0.18000
C281        C  0.62212451  0.49775472  0.78113700    -0.19000
C282        C  0.62212937  0.50303227  0.72007440    -0.19000
C283        C  0.37780796  0.99789019  0.78114095    -0.19000
C284        C  0.37780731  0.00316547  0.72007788    -0.19000
C285        C  0.57063211  0.49544616  0.85866024    -0.14400
C286        C  0.42930200  0.99552254  0.85866055    -0.14400
C287        C  0.42929499  0.00547837  0.64254619    -0.14400
C288        C  0.57064131  0.50540825  0.64254450    -0.14400
H289        H  0.53830077  0.52367827  0.96541642     0.18500
H290        H  0.46167680  0.02371989  0.96541595     0.18500
H291        H  0.53825709  0.47721268  0.53579215     0.18500
H292        H  0.46163784  0.97725129  0.53579169     0.18500
H293        H  0.64756866  0.49595244  0.80951205     0.16800
H294        H  0.64757734  0.50477588  0.69169872     0.16800
H295        H  0.35236289  0.99611702  0.80951746     0.16800
H296        H  0.35236024  0.00493633  0.69170319     0.16800
H297        H  0.49995450  0.48011568  0.79976656     0.30100
H298        H  0.49997995  0.02083940  0.70142537     0.30100
C299        C  0.35353130  0.00035002  0.00062237     0.01500
C300        C  0.64640632  0.00026645  0.00062012     0.01500
N301        N  0.49999173  0.24213602  0.65980116    -0.32700
N302        N  0.56010453  0.24975608  0.75036955    -0.53200
N303        N  0.49998982  0.25742969  0.84089570    -0.32700
N304        N  0.43987745  0.24977377  0.75035916    -0.53200
C305        C  0.53153451  0.24974173  0.62583769     0.30900
C306        C  0.46845313  0.24974869  0.62583146     0.30900
C307        C  0.53152286  0.24983756  0.87487868     0.30900
C308        C  0.46845266  0.24984555  0.87487356     0.30900
C309        C  0.58357806  0.24587332  0.70226896     0.39500
C310        C  0.58356771  0.25368325  0.79847509     0.39500
C311        C  0.41640496  0.24589574  0.70225348     0.39500
C312        C  0.41641318  0.25370644  0.79846001     0.39500
C313        C  0.51988999  0.26302646  0.57092886    -0.18000
C314        C  0.48010465  0.26303079  0.57092495    -0.18000
C315        C  0.51987694  0.23657799  0.92980440    -0.18000
C316        C  0.48009182  0.23658295  0.92980104    -0.18000
C317        C  0.62215435  0.24716243  0.71985095    -0.19000
C318        C  0.62214710  0.25243940  0.78091352    -0.19000
C319        C  0.37782835  0.24719443  0.71982750    -0.19000
C320        C  0.37783440  0.25247191  0.78088994    -0.19000
C321        C  0.57067129  0.24482412  0.64230819    -0.14400
C322        C  0.42931390  0.24484063  0.64229512    -0.14400
C323        C  0.42932933  0.25480258  0.85841045    -0.14400
C324        C  0.57064847  0.25478451  0.85842198    -0.14400
H325        H  0.53830834  0.27304612  0.53556447     0.18500
H326        H  0.46169129  0.27305505  0.53555741     0.18500
H327        H  0.53829503  0.22657996  0.96518822     0.18500
H328        H  0.46166878  0.22658971  0.96518204     0.18500
H329        H  0.64760394  0.24541546  0.69147993     0.16800
H330        H  0.64758959  0.25423790  0.80929340     0.16800
H331        H  0.35237943  0.24545251  0.69145133     0.16800
H332        H  0.35239117  0.25427588  0.80926440     0.16800
H333        H  0.49998838  0.22941822  0.70117697     0.30100
H334        H  0.49999326  0.27014476  0.79951695     0.30100
C335        C  0.35355185  0.25003391  0.00034616     0.01500
C336        C  0.64642667  0.24998880  0.00035432     0.01500
N337        N  0.99998218  0.24217613  0.59026727    -0.32700
N338        N  0.06009452  0.24984953  0.99972257    -0.53200
N339        N  0.99997979  0.25746472  0.90917076    -0.32700
N340        N  0.93986750  0.24977217  0.99970307    -0.53200
C341        C  0.03151373  0.24980394  0.62423923     0.30900
C342        C  0.96843600  0.24976353  0.62422951     0.30900
C343        C  0.03152373  0.24989383  0.87519657     0.30900
C344        C  0.96844972  0.24985675  0.87518625     0.30900
C345        C  0.08356425  0.24596485  0.54782957     0.39500
C346        C  0.08356143  0.25377063  0.95162238     0.39500
C347        C  0.91639914  0.24585315  0.54780189     0.39500
C348        C  0.91639918  0.25366248  0.95159486     0.39500
C349        C  0.01985531  0.26308167  0.67914441    -0.18000
C350        C  0.98006988  0.26305645  0.67913828    -0.18000
C351        C  0.01989090  0.23662853  0.82026735    -0.18000
C352        C  0.98010581  0.23660516  0.82026107    -0.18000
C353        C  0.12214175  0.24725497  0.53026120    -0.19000
C354        C  0.12213957  0.25252912  0.96919789    -0.19000
C355        C  0.87782152  0.24708811  0.53021917    -0.19000
C356        C  0.87782139  0.25236479  0.96915626    -0.19000
C357        C  0.07065116  0.24489760  0.60778348    -0.14400
C358        C  0.92930720  0.24480732  0.60776120    -0.14400
C359        C  0.92931624  0.25476675  0.89164523    -0.14400
C360        C  0.07064902  0.25485043  0.89166811    -0.14400
H361        H  0.03826389  0.27311107  0.71451434     0.18500
H362        H  0.96164353  0.27306221  0.71450338     0.18500
H363        H  0.03831823  0.22664080  0.78488830     0.18500
H364        H  0.96169523  0.22659482  0.78487769     0.18500
H365        H  0.14758852  0.24550356  0.55863998     0.16800
H366        H  0.14758486  0.25432080  0.94082538     0.16800
H367        H  0.85237454  0.24529926  0.55858858     0.16800
H368        H  0.85237617  0.25412115  0.94077470     0.16800
H369        H  0.99999380  0.22945214  0.54889718     0.30100
H370        H  0.99996868  0.27017351  0.95055464     0.30100
C371        C  0.14641920  0.24998897  0.74972557     0.01500
C372        C  0.85354207  0.24989666  0.74968860     0.01500
N373        N  0.99997936  0.50769936  0.59069032    -0.32700
N374        N  0.93986477  0.50005898  0.00014591    -0.53200
N375        N  0.99997714  0.49240953  0.90959510    -0.32700
N376        N  0.06009183  0.50005764  0.00014452    -0.53200
C377        C  0.96844167  0.50009474  0.62466033     0.30900
C378        C  0.03151810  0.50009473  0.62465948     0.30900
C379        C  0.96843964  0.50000449  0.87561822     0.30900
C380        C  0.03151497  0.49999921  0.87561696     0.30900
C381        C  0.91639679  0.50396481  0.54824846     0.39500
C382        C  0.91639593  0.49615935  0.95204130     0.39500
C383        C  0.08356097  0.50396528  0.54824783     0.39500
C384        C  0.08355943  0.49615389  0.95204153     0.39500
C385        C  0.98008778  0.48680970  0.67956767    -0.18000
C386        C  0.01987358  0.48680949  0.67956697    -0.18000
C387        C  0.98008530  0.51326218  0.82069056    -0.18000
C388        C  0.01987003  0.51325897  0.82068996    -0.18000
C389        C  0.87781889  0.50270344  0.53067495    -0.19000
C390        C  0.87781821  0.49742959  0.96961163    -0.19000
C391        C  0.12213835  0.50270212  0.53067615    -0.19000
C392        C  0.12213748  0.49742411  0.96961392    -0.19000
C393        C  0.92931030  0.50503592  0.60820279    -0.14400
C394        C  0.07064902  0.50503723  0.60820224    -0.14400
C395        C  0.07064620  0.49507435  0.89208711    -0.14400
C396        C  0.92930803  0.49508358  0.89208768    -0.14400
H397        H  0.96166960  0.47679530  0.71493676     0.18500
H398        H  0.03829275  0.47679490  0.71493542     0.18500
H399        H  0.96166797  0.52326546  0.78531016     0.18500
H400        H  0.03828820  0.52326034  0.78530981     0.18500
H401        H  0.85237314  0.50447745  0.55904951     0.16800
H402        H  0.85237173  0.49566065  0.94123489     0.16800
H403        H  0.14758475  0.50447629  0.55905189     0.16800
H404        H  0.14758334  0.49565209  0.94123901     0.16800
H405        H  0.99997909  0.52042586  0.54932208     0.30100
H406        H  0.99997644  0.47970335  0.95098157     0.30100
C407        C  0.14641692  0.00007815  0.75015924     0.01500
C408        C  0.85353981  0.50005812  0.75014432     0.01500
O409        O  0.79993401  0.09029664  0.86771385    -0.67800
O410        O  0.74412697  0.15994125  0.95261405    -0.68100
O411        O  0.74413645  0.09031410  0.95278769    -0.67900
O412        O  0.79991640  0.15984234  0.86753398    -0.67900
O413        O  0.75584516  0.15981969  0.79751016    -0.67900
O414        O  0.70006712  0.09029145  0.88276088    -0.67900
O415        O  0.70005176  0.15983522  0.88259626    -0.67800
O416        O  0.75586519  0.09018536  0.79768702    -0.68000
V417        V  0.77118750  0.12509753  0.90877404     1.35200
V418        V  0.72879838  0.12503428  0.84152386     1.35200
C419        C  0.78757271  0.07874467  0.81811937     0.81400
C420        C  0.71241606  0.17137836  0.93219773     0.81500
C421        C  0.71243260  0.07882984  0.93241569     0.81300
C422        C  0.78754677  0.17130742  0.81788322     0.81300
O423        O  0.70000031  0.40984433  0.61801642    -0.67800
O424        O  0.75602012  0.34018386  0.70257126    -0.68100
O425        O  0.75599321  0.40982033  0.70276582    -0.67900
O426        O  0.70002489  0.34028787  0.61783406    -0.67900
O427        O  0.74392526  0.34031854  0.54755741    -0.67900
O428        O  0.79989733  0.40985686  0.63249418    -0.67900
O429        O  0.79992416  0.34030330  0.63230059    -0.67800
O430        O  0.74390459  0.40996208  0.54774624    -0.68000
V431        V  0.72884747  0.37503585  0.65890440     1.35200
V432        V  0.77107460  0.37510919  0.59141423     1.35200
C433        C  0.71225426  0.42141183  0.56836791     0.81400
C434        C  0.78767236  0.32873717  0.68195060     0.81500
C435        C  0.78763685  0.42132265  0.68220805     0.81300
C436        C  0.71228584  0.32881103  0.56813005     0.81300
O437        O  0.20000083  0.15990677  0.86755669    -0.67800
O438        O  0.25578090  0.09038447  0.95281913    -0.68100
O439        O  0.25579847  0.16001198  0.95263023    -0.67900
O440        O  0.19997686  0.09035926  0.86775033    -0.67900
O441        O  0.24403878  0.09024631  0.79771750    -0.67900
O442        O  0.29986899  0.15989661  0.88260977    -0.67900
O443        O  0.29984198  0.09035387  0.88278377    -0.67800
O444        O  0.24406850  0.15988080  0.79753149    -0.68000
V445        V  0.22872969  0.12516463  0.90880070     1.35200
V446        V  0.27111319  0.12509597  0.84154603     1.35200
C447        C  0.21236984  0.17137044  0.81790544     0.81400
C448        C  0.28748025  0.07889683  0.93244281     0.81500
C449        C  0.28751072  0.17144451  0.93220957     0.81300
C450        C  0.21233424  0.07880363  0.81815691     0.81300
O451        O  0.29997927  0.34034506  0.61785422    -0.67800
O452        O  0.24401038  0.40988105  0.70276937    -0.68100
O453        O  0.24398997  0.34024490  0.70260095    -0.67900
O454        O  0.29999460  0.40990205  0.61801159    -0.67900
O455        O  0.25607990  0.41000828  0.54775258    -0.67900
O456        O  0.20008339  0.34034642  0.63232956    -0.67900
O457        O  0.20009643  0.40989856  0.63250854    -0.67800
O458        O  0.25607517  0.34036517  0.54757929    -0.66400
V459        V  0.27115591  0.37509443  0.65891659     1.35200
V460        V  0.22892238  0.37515353  0.59143199     1.35200
C461        C  0.28771787  0.32886407  0.56815124     0.81400
C462        C  0.21236095  0.42137356  0.68221564     0.81500
C463        C  0.21233735  0.32879174  0.68198618     0.81300
C464        C  0.28773068  0.42146516  0.56836526     0.81300
C465        C  0.80938533  0.44719388  0.71426004    -0.09300
C466        C  0.82899008  0.47010487  0.73550612    -0.10900
C467        C  0.82893521  0.02997730  0.76478753    -0.09300
C468        C  0.80930058  0.05286445  0.78604842    -0.10900
C469        C  0.17099172  0.47014256  0.73551663    -0.09300
C470        C  0.19060812  0.44724139  0.71426735    -0.10900
C471        C  0.17099496  0.03001394  0.76482475    -0.09300
C472        C  0.19061023  0.05291377  0.78609511    -0.10900
C473        C  0.09921704  0.00723956  0.65603235    -0.09300
C474        C  0.12151295  0.00681846  0.69793236    -0.10900
C475        C  0.09921502  0.49288720  0.84426521    -0.09300
C476        C  0.12151031  0.49332817  0.80237113    -0.10900
C477        C  0.87844500  0.49333052  0.80236705    -0.09300
C478        C  0.90073857  0.49289751  0.84426493    -0.10900
C479        C  0.90074293  0.00723496  0.65603054    -0.09300
C480        C  0.87844439  0.00680827  0.69792446    -0.10900
C481        C  0.80925712  0.19714652  0.78568595    -0.09300
C482        C  0.82889643  0.22000868  0.76435469    -0.10900
C483        C  0.80943993  0.30281894  0.71386605    -0.09300
C484        C  0.82903454  0.27988048  0.73505089    -0.10900
C485        C  0.17095414  0.27995652  0.73509989    -0.09300
C486        C  0.19056687  0.30288281  0.71391674    -0.10900
C487        C  0.17103861  0.22008458  0.76438518    -0.09300
C488        C  0.19066493  0.19721308  0.78571152    -0.10900
C489        C  0.12152531  0.24321585  0.69750197    -0.09300
C490        C  0.09922434  0.24274879  0.65561138    -0.10900
C491        C  0.09921275  0.25708728  0.84384554    -0.09300
C492        C  0.12150352  0.25669468  0.80194390    -0.10900
C493        C  0.90075523  0.25698516  0.84381255    -0.09300
C494        C  0.87846459  0.25659133  0.80190780    -0.10900
C495        C  0.87843008  0.24310429  0.69746853    -0.09300
C496        C  0.90073111  0.24263715  0.65558005    -0.10900
C497        C  0.69054424  0.30291212  0.53612589    -0.09300
C498        C  0.67094502  0.27997299  0.51495213    -0.10900
C499        C  0.69068902  0.19723684  0.96431521    -0.09300
C500        C  0.67105980  0.22010085  0.98565657    -0.10900
C501        C  0.32889557  0.22015782  0.98565364    -0.09300
C502        C  0.30924899  0.19730096  0.96432079    -0.10900
C503        C  0.30946192  0.30296792  0.53614528    -0.09300
C504        C  0.32905373  0.28002840  0.51495912    -0.10900
C505        C  0.40077578  0.25707343  0.90623931    -0.09300
C506        C  0.37848751  0.25671382  0.94814348    -0.10900
C507        C  0.37842692  0.24322524  0.55258294    -0.09300
C508        C  0.40073052  0.24272321  0.59447192    -0.10900
C509        C  0.59920041  0.25704794  0.90625475    -0.09300
C510        C  0.62148901  0.25667932  0.94815885    -0.10900
C511        C  0.59925501  0.24270036  0.59448967    -0.09300
C512        C  0.62155551  0.24319401  0.55259866    -0.10900
C513        C  0.69071325  0.05300019  0.96461963    -0.09300
C514        C  0.67106351  0.03014637  0.98595365    -0.10900
C515        C  0.69049156  0.44733463  0.53645390    -0.09300
C516        C  0.67090337  0.47027643  0.51526463    -0.10900
C517        C  0.32905218  0.47034714  0.51525888    -0.09300
C518        C  0.30947960  0.44739442  0.53644685    -0.10900
C519        C  0.32885840  0.03021942  0.98596967    -0.09300
C520        C  0.30920018  0.05306913  0.96464572    -0.10900
C521        C  0.40071805  0.00763797  0.59472715    -0.09300
C522        C  0.37841642  0.00715871  0.55283939    -0.10900
C523        C  0.40074292  0.49329580  0.90649239    -0.09300
C524        C  0.37845477  0.49367746  0.94839859    -0.10900
C525        C  0.62148220  0.49357878  0.94839859    -0.09300
C526        C  0.59919224  0.49319946  0.90649169    -0.10900
C527        C  0.62151962  0.00706919  0.55283701    -0.09300
C528        C  0.59921800  0.00755131  0.59472376    -0.10900
N529        N  0.49996462  0.99283310  0.34114316    -0.32700
N530        N  0.56008088  0.00045668  0.25060543    -0.53200
N531        N  0.49997043  0.50812378  0.16004758    -0.32700
N532        N  0.43985385  0.50052219  0.25060650    -0.53200
C533        C  0.53150747  0.00041007  0.37511973     0.30900
C534        C  0.46843403  0.50044472  0.37511944     0.30900
C535        C  0.53150370  0.00050559  0.12607712     0.30900
C536        C  0.46842547  0.50053682  0.12607802     0.30900
C537        C  0.58354598  0.99652499  0.29870788     0.39500
C538        C  0.58355256  0.00433567  0.20250107     0.39500
C539        C  0.41638575  0.49661775  0.29870968     0.39500
C540        C  0.41638518  0.50442513  0.20250294     0.39500
C541        C  0.51987376  0.01368508  0.43003920    -0.18000
C542        C  0.48008856  0.51370667  0.43003918    -0.18000
C543        C  0.51984733  0.98723587  0.07116300    -0.18000
C544        C  0.48006202  0.48725562  0.07116332    -0.18000
C545        C  0.62212449  0.99775476  0.28113706    -0.19000
C546        C  0.62212937  0.00303218  0.22007445    -0.19000
C547        C  0.37780795  0.49789030  0.28114093    -0.19000
C548        C  0.37780730  0.50316561  0.22007788    -0.19000
C549        C  0.57063214  0.99544609  0.35866028    -0.14400
C550        C  0.42930199  0.49552265  0.35866060    -0.14400
C551        C  0.42929497  0.50547833  0.14254623    -0.14400
C552        C  0.57064132  0.00540816  0.14254449    -0.14400
H553        H  0.53830091  0.02367833  0.46541644     0.18500
H554        H  0.46167684  0.52371987  0.46541614     0.18500
H555        H  0.53825707  0.97721258  0.03579202     0.18500
H556        H  0.46163776  0.47725132  0.03579169     0.18500
H557        H  0.64756864  0.99595256  0.30951222     0.16800
H558        H  0.64757740  0.00477572  0.19169884     0.16800
H559        H  0.35236279  0.49611705  0.30951742     0.16800
H560        H  0.35236028  0.50493642  0.19170313     0.16800
H561        H  0.49995453  0.98011578  0.29976670     0.30100
H562        H  0.49997999  0.52083928  0.20142524     0.30100
C563        C  0.35353132  0.50034997  0.50062230     0.01500
C564        C  0.64640627  0.50026632  0.50062005     0.01500
N565        N  0.49999168  0.74213606  0.15980126    -0.32700
N566        N  0.56010444  0.74975601  0.25036953    -0.53200
N567        N  0.49998982  0.75742975  0.34089592    -0.32700
N568        N  0.43987743  0.74977382  0.25035918    -0.53200
C569        C  0.53153444  0.74974176  0.12583777     0.30900
C570        C  0.46845305  0.74974864  0.12583154     0.30900
C571        C  0.53152285  0.74983750  0.37487871     0.30900
C572        C  0.46845264  0.74984560  0.37487368     0.30900
C573        C  0.58357799  0.74587335  0.20226894     0.39500
C574        C  0.58356764  0.75368312  0.29847504     0.39500
C575        C  0.41640490  0.74589576  0.20225356     0.39500
C576        C  0.41641315  0.75370636  0.29846008     0.39500
C577        C  0.51988988  0.76302647  0.07092900    -0.18000
C578        C  0.48010458  0.76303073  0.07092506    -0.18000
C579        C  0.51987692  0.73657787  0.42980437    -0.18000
C580        C  0.48009179  0.73658284  0.42980108    -0.18000
C581        C  0.62215426  0.74716236  0.21985092    -0.19000
C582        C  0.62214706  0.75243927  0.28091347    -0.19000
C583        C  0.37782832  0.74719445  0.21982758    -0.19000
C584        C  0.37783438  0.75247183  0.28089004    -0.19000
C585        C  0.57067124  0.74482422  0.14230825    -0.14400
C586        C  0.42931382  0.74484064  0.14229514    -0.14400
C587        C  0.42932929  0.75480250  0.35841052    -0.14400
C588        C  0.57064845  0.75478442  0.35842191    -0.14400
H589        H  0.53830823  0.77304624  0.03556461     0.18500
H590        H  0.46169116  0.77305499  0.03555756     0.18500
H591        H  0.53829503  0.72657976  0.46518825     0.18500
H592        H  0.46166876  0.72658952  0.46518187     0.18500
H593        H  0.64760385  0.74541541  0.19147985     0.16800
H594        H  0.64758952  0.75423777  0.30929322     0.16800
H595        H  0.35237940  0.74545261  0.19145141     0.16800
H596        H  0.35239115  0.75427577  0.30926449     0.16800
H597        H  0.49998833  0.72941834  0.20117716     0.30100
H598        H  0.49999328  0.77014484  0.29951713     0.30100
C599        C  0.35355180  0.75003390  0.50034615     0.01500
C600        C  0.64642668  0.74998882  0.50035426     0.01500
N601        N  0.99998217  0.74217615  0.09026718    -0.32700
N602        N  0.06009447  0.74984943  0.49972245    -0.53200
N603        N  0.99997979  0.75746489  0.40917093    -0.32700
N604        N  0.93986750  0.74977230  0.49970315    -0.53200
C605        C  0.03151367  0.74980396  0.12423933     0.30900
C606        C  0.96843594  0.74976348  0.12422949     0.30900
C607        C  0.03152374  0.74989395  0.37519649     0.30900
C608        C  0.96844974  0.74985679  0.37518622     0.30900
C609        C  0.08356429  0.74596487  0.04782973     0.39500
C610        C  0.08356143  0.75377056  0.45162230     0.39500
C611        C  0.91639907  0.74585310  0.04780186     0.39500
C612        C  0.91639917  0.75366253  0.45159488     0.39500
C613        C  0.01985516  0.76308166  0.17914447    -0.18000
C614        C  0.98006976  0.76305634  0.17913829    -0.18000
C615        C  0.01989093  0.73662861  0.32026731    -0.18000
C616        C  0.98010586  0.73660516  0.32026114    -0.18000
C617        C  0.12214177  0.74725500  0.03026138    -0.19000
C618        C  0.12213957  0.75252917  0.46919790    -0.19000
C619        C  0.87782143  0.74708816  0.03021911    -0.19000
C620        C  0.87782138  0.75236470  0.46915638    -0.19000
C621        C  0.07065114  0.74489763  0.10778363    -0.14400
C622        C  0.92930714  0.74480735  0.10776117    -0.14400
C623        C  0.92931624  0.75476675  0.39164523    -0.14400
C624        C  0.07064904  0.75485042  0.39166808    -0.14400
H625        H  0.03826365  0.77311118  0.21451452     0.18500
H626        H  0.96164330  0.77306205  0.21450339     0.18500
H627        H  0.03831824  0.72664084  0.28488832     0.18500
H628        H  0.96169527  0.72659465  0.28487772     0.18500
H629        H  0.14758859  0.74550368  0.05864021     0.16800
H630        H  0.14758489  0.75432095  0.44082549     0.16800
H631        H  0.85237447  0.74529940  0.05858842     0.16800
H632        H  0.85237614  0.75412092  0.44077486     0.16800
H633        H  0.99999385  0.72945230  0.04889705     0.30100
H634        H  0.99996871  0.77017360  0.45055470     0.30100
C635        C  0.14641921  0.74998891  0.24972556     0.01500
C636        C  0.85354201  0.74989662  0.24968860     0.01500
N637        N  0.99997937  0.00769940  0.09069054    -0.32700
N638        N  0.93986481  0.00005892  0.50014600    -0.53200
N639        N  0.99997715  0.99240945  0.40959525    -0.32700
N640        N  0.06009183  0.00005753  0.50014447    -0.53200
C641        C  0.96844166  0.00009466  0.12466039     0.30900
C642        C  0.03151806  0.00009482  0.12465965     0.30900
C643        C  0.96843967  0.00000459  0.37561825     0.30900
C644        C  0.03151501  0.99999917  0.37561698     0.30900
C645        C  0.91639686  0.00396487  0.04824836     0.39500
C646        C  0.91639594  0.99615939  0.45204137     0.39500
C647        C  0.08356096  0.00396525  0.04824797     0.39500
C648        C  0.08355945  0.99615388  0.45204154     0.39500
C649        C  0.98008780  0.98680960  0.17956773    -0.18000
C650        C  0.01987358  0.98680943  0.17956702    -0.18000
C651        C  0.98008538  0.01326226  0.32069060    -0.18000
C652        C  0.01987013  0.01325894  0.32068991    -0.18000
C653        C  0.87781895  0.00270359  0.03067483    -0.19000
C654        C  0.87781823  0.99742951  0.46961180    -0.19000
C655        C  0.12213833  0.00270202  0.03067625    -0.19000
C656        C  0.12213750  0.99742410  0.46961387    -0.19000
C657        C  0.92931033  0.00503587  0.10820277    -0.14400
C658        C  0.07064899  0.00503734  0.10820238    -0.14400
C659        C  0.07064622  0.99507427  0.39208708    -0.14400
C660        C  0.92930804  0.99508372  0.39208776    -0.14400
H661        H  0.96166963  0.97679516  0.21493686     0.18500
H662        H  0.03829280  0.97679476  0.21493547     0.18500
H663        H  0.96166811  0.02326558  0.28531010     0.18500
H664        H  0.03828829  0.02326020  0.28530983     0.18500
H665        H  0.85237323  0.00447755  0.05904945     0.16800
H666        H  0.85237172  0.99566055  0.44123516     0.16800
H667        H  0.14758476  0.00447613  0.05905198     0.16800
H668        H  0.14758333  0.99565206  0.44123902     0.16800
H669        H  0.99997906  0.02042594  0.04932229     0.30100
H670        H  0.99997643  0.97970322  0.45098150     0.30100
C671        C  0.14641692  0.50007817  0.25015924     0.01500
C672        C  0.85353979  0.00005814  0.25014433     0.01500
O673        O  0.79993402  0.59029659  0.36771390    -0.67800
O674        O  0.74412687  0.65994119  0.45261413    -0.68100
O675        O  0.74413644  0.59031409  0.45278778    -0.67900
O676        O  0.79991640  0.65984239  0.36753404    -0.67900
O677        O  0.75584512  0.65981976  0.29751029    -0.67900
O678        O  0.70006720  0.59029134  0.38276086    -0.67900
O679        O  0.70005171  0.65983510  0.38259627    -0.67800
O680        O  0.75586525  0.59018540  0.29768702    -0.68000
V681        V  0.77118750  0.62509752  0.40877412     1.35200
V682        V  0.72879840  0.62503424  0.34152391     1.35200
C683        C  0.78757275  0.57874470  0.31811937     0.81400
C684        C  0.71241599  0.67137829  0.43219773     0.81500
C685        C  0.71243260  0.57882979  0.43241575     0.81300
C686        C  0.78754673  0.67130752  0.31788330     0.81300
O687        O  0.70000031  0.90984439  0.11801624    -0.67800
O688        O  0.75602014  0.84018385  0.20257109    -0.68100
O689        O  0.75599325  0.90982028  0.20276584    -0.67900
O690        O  0.70002486  0.84028792  0.11783402    -0.67900
O691        O  0.74392525  0.84031849  0.04755741    -0.67900
O692        O  0.79989736  0.90985679  0.13249419    -0.67900
O693        O  0.79992413  0.84030322  0.13230036    -0.67800
O694        O  0.74390465  0.90996216  0.04774613    -0.68000
V695        V  0.72884748  0.87503588  0.15890430     1.35200
V696        V  0.77107461  0.87510918  0.09141413     1.35200
C697        C  0.71225426  0.92141188  0.06836771     0.81400
C698        C  0.78767233  0.82873708  0.18195037     0.81500
C699        C  0.78763690  0.92132256  0.18220809     0.81300
C700        C  0.71228586  0.82881097  0.06813014     0.81300
O701        O  0.20000076  0.65990670  0.36755681    -0.67800
O702        O  0.25578092  0.59038440  0.45281919    -0.68100
O703        O  0.25579843  0.66001195  0.45263033    -0.67900
O704        O  0.19997682  0.59035920  0.36775040    -0.67900
O705        O  0.24403878  0.59024630  0.29771763    -0.67900
O706        O  0.29986902  0.65989654  0.38260995    -0.67900
O707        O  0.29984198  0.59035385  0.38278380    -0.67800
O708        O  0.24406849  0.65988089  0.29753172    -0.68000
V709        V  0.22872966  0.62516457  0.40880081     1.35200
V710        V  0.27111318  0.62509597  0.34154616     1.35200
C711        C  0.21236982  0.67137047  0.31790562     0.81400
C712        C  0.28748027  0.57889677  0.43244287     0.81500
C713        C  0.28751074  0.67144444  0.43220973     0.81300
C714        C  0.21233421  0.57880362  0.31815702     0.81300
O715        O  0.29997926  0.84034502  0.11785430    -0.67800
O716        O  0.24401041  0.90988104  0.20276922    -0.68100
O717        O  0.24399001  0.84024488  0.20260075    -0.67900
O718        O  0.29999467  0.90990201  0.11801133    -0.67900
O719        O  0.25607984  0.91000841  0.04775252    -0.67900
O720        O  0.20008339  0.84034643  0.13232945    -0.67900
O721        O  0.20009638  0.90989851  0.13250852    -0.67800
O722        O  0.25607523  0.84036526  0.04757925    -0.66400
V723        V  0.27115593  0.87509443  0.15891645     1.35200
V724        V  0.22892238  0.87515357  0.09143189     1.35200
C725        C  0.28771785  0.82886404  0.06815134     0.81400
C726        C  0.21236094  0.92137351  0.18221558     0.81500
C727        C  0.21233737  0.82879172  0.18198602     0.81300
C728        C  0.28773070  0.92146516  0.06836511     0.81300
C729        C  0.80938540  0.94719382  0.21426004    -0.09300
C730        C  0.82899011  0.97010483  0.23550616    -0.10900
C731        C  0.82893519  0.52997729  0.26478757    -0.09300
C732        C  0.80930060  0.55286450  0.28604826    -0.10900
C733        C  0.17099175  0.97014258  0.23551660    -0.09300
C734        C  0.19060816  0.94724141  0.21426727    -0.10900
C735        C  0.17099492  0.53001399  0.26482476    -0.09300
C736        C  0.19061021  0.55291380  0.28609510    -0.10900
C737        C  0.09921701  0.50723963  0.15603244    -0.09300
C738        C  0.12151298  0.50681845  0.19793234    -0.10900
C739        C  0.09921506  0.99288713  0.34426517    -0.09300
C740        C  0.12151031  0.99332825  0.30237106    -0.10900
C741        C  0.87844496  0.99333062  0.30236717    -0.09300
C742        C  0.90073854  0.99289766  0.34426503    -0.10900
C743        C  0.90074289  0.50723510  0.15603048    -0.09300
C744        C  0.87844434  0.50680835  0.19792444    -0.10900
C745        C  0.80925708  0.69714657  0.28568599    -0.09300
C746        C  0.82889644  0.72000864  0.26435461    -0.10900
C747        C  0.80943987  0.80281882  0.21386582    -0.09300
C748        C  0.82903440  0.77988039  0.23505095    -0.10900
C749        C  0.17095412  0.77995651  0.23509995    -0.09300
C750        C  0.19056688  0.80288279  0.21391672    -0.10900
C751        C  0.17103864  0.72008454  0.26438504    -0.09300
C752        C  0.19066491  0.69721311  0.28571167    -0.10900
C753        C  0.12152531  0.74321575  0.19750203    -0.09300
C754        C  0.09922429  0.74274872  0.15561152    -0.10900
C755        C  0.09921279  0.75708730  0.34384554    -0.09300
C756        C  0.12150357  0.75669458  0.30194393    -0.10900
C757        C  0.90075526  0.75698519  0.34381249    -0.09300
C758        C  0.87846455  0.75659129  0.30190779    -0.10900
C759        C  0.87843000  0.74310429  0.19746851    -0.09300
C760        C  0.90073103  0.74263723  0.15558005    -0.10900
C761        C  0.69054425  0.80291202  0.03612604    -0.09300
C762        C  0.67094502  0.77997296  0.01495212    -0.10900
C763        C  0.69068897  0.69723683  0.46431508    -0.09300
C764        C  0.67105986  0.72010087  0.48565657    -0.10900
C765        C  0.32889562  0.72015776  0.48565361    -0.09300
C766        C  0.30924904  0.69730086  0.46432089    -0.10900
C767        C  0.30946182  0.80296787  0.03614546    -0.09300
C768        C  0.32905362  0.78002834  0.01495925    -0.10900
C769        C  0.40077569  0.75707330  0.40623928    -0.09300
C770        C  0.37848741  0.75671377  0.44814346    -0.10900
C771        C  0.37842686  0.74322516  0.05258286    -0.09300
C772        C  0.40073043  0.74272313  0.09447191    -0.10900
C773        C  0.59920044  0.75704795  0.40625458    -0.09300
C774        C  0.62148904  0.75667928  0.44815868    -0.10900
C775        C  0.59925501  0.74270045  0.09448979    -0.09300
C776        C  0.62155552  0.74319400  0.05259882    -0.10900
C777        C  0.69071326  0.55300011  0.46461964    -0.09300
C778        C  0.67106347  0.53014622  0.48595348    -0.10900
C779        C  0.69049160  0.94733468  0.03645371    -0.09300
C780        C  0.67090342  0.97027657  0.01526466    -0.10900
C781        C  0.32905216  0.97034717  0.01525890    -0.09300
C782        C  0.30947963  0.94739440  0.03644666    -0.10900
C783        C  0.32885843  0.53021932  0.48596945    -0.09300
C784        C  0.30920018  0.55306907  0.46464565    -0.10900
C785        C  0.40071803  0.50763805  0.09472726    -0.09300
C786        C  0.37841641  0.50715884  0.05283942    -0.10900
C787        C  0.40074297  0.99329572  0.40649243    -0.09300
C788        C  0.37845479  0.99367731  0.44839861    -0.10900
C789        C  0.62148220  0.99357870  0.44839861    -0.09300
C790        C  0.59919224  0.99319948  0.40649173    -0.10900
C791        C  0.62151965  0.50706923  0.05283707    -0.09300
C792        C  0.59921803  0.50755124  0.09472379    -0.10900
N793        N  0.49996466  0.99283295  0.84114286    -0.32700
N794        N  0.56008095  0.00045665  0.75060539    -0.53200
N795        N  0.49997044  0.50812392  0.66004790    -0.32700
N796        N  0.43985383  0.50052205  0.75060644    -0.53200
C797        C  0.53150748  0.00041007  0.87511966     0.30900
C798        C  0.46843403  0.50044464  0.87511938     0.30900
C799        C  0.53150370  0.00050560  0.62607727     0.30900
C800        C  0.46842550  0.50053691  0.62607804     0.30900
C801        C  0.58354603  0.99652500  0.79870783     0.39500
C802        C  0.58355260  0.00433576  0.70250106     0.39500
C803        C  0.41638576  0.49661760  0.79870966     0.39500
C804        C  0.41638519  0.50442502  0.70250290     0.39500
C805        C  0.51987376  0.01368508  0.93003921    -0.18000
C806        C  0.48008850  0.51370671  0.93003901    -0.18000
C807        C  0.51984739  0.98723588  0.57116307    -0.18000
C808        C  0.48006206  0.48725564  0.57116341    -0.18000
C809        C  0.62212457  0.99775472  0.78113700    -0.19000
C810        C  0.62212941  0.00303227  0.72007443    -0.19000
C811        C  0.37780792  0.49789019  0.78114093    -0.19000
C812        C  0.37780728  0.50316547  0.72007787    -0.19000
C813        C  0.57063218  0.99544615  0.85866025    -0.14400
C814        C  0.42930198  0.49552254  0.85866054    -0.14400
C815        C  0.42929498  0.50547838  0.64254622    -0.14400
C816        C  0.57064130  0.00540827  0.64254453    -0.14400
H817        H  0.53830080  0.02367827  0.96541641     0.18500
H818        H  0.46167670  0.52371990  0.96541596     0.18500
H819        H  0.53825713  0.97721270  0.53579219     0.18500
H820        H  0.46163778  0.47725131  0.53579174     0.18500
H821        H  0.64756870  0.99595243  0.80951207     0.16800
H822        H  0.64757746  0.00477588  0.69169873     0.16800
H823        H  0.35236284  0.49611703  0.80951744     0.16800
H824        H  0.35236024  0.50493633  0.69170317     0.16800
H825        H  0.49995461  0.98011568  0.79976657     0.30100
H826        H  0.49998000  0.52083939  0.70142536     0.30100
C827        C  0.35353129  0.50035009  0.00062237     0.01500
C828        C  0.64640621  0.50026647  0.00062011     0.01500
N829        N  0.49999174  0.74213601  0.65980116    -0.32700
N830        N  0.56010453  0.74975608  0.75036957    -0.53200
N831        N  0.49998986  0.75742969  0.84089572    -0.32700
N832        N  0.43987747  0.74977372  0.75035920    -0.53200
C833        C  0.53153449  0.74974174  0.62583768     0.30900
C834        C  0.46845311  0.74974867  0.62583151     0.30900
C835        C  0.53152291  0.74983756  0.87487868     0.30900
C836        C  0.46845268  0.74984555  0.87487360     0.30900
C837        C  0.58357804  0.74587332  0.70226896     0.39500
C838        C  0.58356773  0.75368324  0.79847508     0.39500
C839        C  0.41640495  0.74589573  0.70225353     0.39500
C840        C  0.41641315  0.75370631  0.79846007     0.39500
C841        C  0.51988993  0.76302645  0.57092888    -0.18000
C842        C  0.48010463  0.76303077  0.57092502    -0.18000
C843        C  0.51987701  0.73657799  0.92980440    -0.18000
C844        C  0.48009188  0.73658295  0.92980105    -0.18000
C845        C  0.62215429  0.74716242  0.71985096    -0.19000
C846        C  0.62214712  0.75243939  0.78091349    -0.19000
C847        C  0.37782835  0.74719442  0.71982752    -0.19000
C848        C  0.37783437  0.75247185  0.78088999    -0.19000
C849        C  0.57067126  0.74482417  0.64230818    -0.14400
C850        C  0.42931389  0.74484063  0.64229515    -0.14400
C851        C  0.42932931  0.75480253  0.85841050    -0.14400
C852        C  0.57064852  0.75478451  0.85842196    -0.14400
H853        H  0.53830831  0.77304614  0.53556442     0.18500
H854        H  0.46169119  0.77305504  0.53555747     0.18500
H855        H  0.53829511  0.72657997  0.96518821     0.18500
H856        H  0.46166885  0.72658971  0.96518205     0.18500
H857        H  0.64760394  0.74541545  0.69147985     0.16800
H858        H  0.64758962  0.75423789  0.80929330     0.16800
H859        H  0.35237944  0.74545254  0.69145132     0.16800
H860        H  0.35239119  0.75427589  0.80926437     0.16800
H861        H  0.49998843  0.72941822  0.70117698     0.30100
H862        H  0.49999331  0.77014475  0.79951697     0.30100
C863        C  0.35355176  0.75003392  0.00034615     0.01500
C864        C  0.64642666  0.74998880  0.00035435     0.01500
N865        N  0.99998217  0.74217629  0.59026730    -0.32700
N866        N  0.06009445  0.74984952  0.99972255    -0.53200
N867        N  0.99997983  0.75746471  0.90917077    -0.32700
N868        N  0.93986754  0.74977217  0.99970306    -0.53200
C869        C  0.03151373  0.74980400  0.62423927     0.30900
C870        C  0.96843598  0.74976358  0.62422948     0.30900
C871        C  0.03152380  0.74989389  0.87519656     0.30900
C872        C  0.96844975  0.74985676  0.87518625     0.30900
C873        C  0.08356432  0.74596485  0.54782959     0.39500
C874        C  0.08356144  0.75377063  0.95162244     0.39500
C875        C  0.91639905  0.74585315  0.54780193     0.39500
C876        C  0.91639922  0.75366248  0.95159486     0.39500
C877        C  0.01985526  0.76308168  0.67914449    -0.18000
C878        C  0.98006980  0.76305645  0.67913829    -0.18000
C879        C  0.01989098  0.73662867  0.82026730    -0.18000
C880        C  0.98010587  0.73660521  0.82026106    -0.18000
C881        C  0.12214181  0.74725496  0.53026118    -0.19000
C882        C  0.12213954  0.75252913  0.96919806    -0.19000
C883        C  0.87782144  0.74708810  0.53021921    -0.19000
C884        C  0.87782138  0.75236479  0.96915627    -0.19000
C885        C  0.07065120  0.74489762  0.60778352    -0.14400
C886        C  0.92930717  0.74480730  0.60776124    -0.14400
C887        C  0.92931623  0.75476674  0.89164521    -0.14400
C888        C  0.07064907  0.75485048  0.89166812    -0.14400
H889        H  0.03826373  0.77311106  0.71451444     0.18500
H890        H  0.96164340  0.77306217  0.71450336     0.18500
H891        H  0.03831836  0.72664099  0.78488825     0.18500
H892        H  0.96169531  0.72659481  0.78487771     0.18500
H893        H  0.14758865  0.74550355  0.55864000     0.16800
H894        H  0.14758492  0.75432080  0.94082567     0.16800
H895        H  0.85237446  0.74529926  0.55858864     0.16800
H896        H  0.85237622  0.75412111  0.94077480     0.16800
H897        H  0.99999381  0.72945236  0.54889709     0.30100
H898        H  0.99996875  0.77017349  0.95055466     0.30100
C899        C  0.14641927  0.74998899  0.74972556     0.01500
C900        C  0.85354197  0.74989665  0.74968861     0.01500
N901        N  0.99997945  0.00769936  0.59069032    -0.32700
N902        N  0.93986479  0.00005898  0.00014586    -0.53200
N903        N  0.99997717  0.99240952  0.90959507    -0.32700
N904        N  0.06009178  0.00005765  0.00014455    -0.53200
C905        C  0.96844173  0.00009473  0.62466034     0.30900
C906        C  0.03151813  0.00009473  0.62465951     0.30900
C907        C  0.96843966  0.00000448  0.87561818     0.30900
C908        C  0.03151502  0.99999920  0.87561695     0.30900
C909        C  0.91639686  0.00396476  0.54824846     0.39500
C910        C  0.91639591  0.99615936  0.95204127     0.39500
C911        C  0.08356101  0.00396516  0.54824792     0.39500
C912        C  0.08355940  0.99615388  0.95204156     0.39500
C913        C  0.98008786  0.98680970  0.67956768    -0.18000
C914        C  0.01987364  0.98680949  0.67956696    -0.18000
C915        C  0.98008538  0.01326219  0.82069052    -0.18000
C916        C  0.01987013  0.01325897  0.82068997    -0.18000
C917        C  0.87781896  0.00270345  0.53067498    -0.19000
C918        C  0.87781818  0.99742959  0.96961163    -0.19000
C919        C  0.12213838  0.00270207  0.53067621    -0.19000
C920        C  0.12213744  0.99742410  0.96961388    -0.19000
C921        C  0.92931039  0.00503592  0.60820279    -0.14400
C922        C  0.07064905  0.00503721  0.60820229    -0.14400
C923        C  0.07064622  0.99507434  0.89208713    -0.14400
C924        C  0.92930802  0.99508359  0.89208766    -0.14400
H925        H  0.96166970  0.97679529  0.71493679     0.18500
H926        H  0.03829289  0.97679489  0.71493541     0.18500
H927        H  0.96166815  0.02326546  0.78531012     0.18500
H928        H  0.03828835  0.02326033  0.78530986     0.18500
H929        H  0.85237324  0.00447748  0.55904957     0.16800
H930        H  0.85237172  0.99566063  0.94123505     0.16800
H931        H  0.14758477  0.00447632  0.55905195     0.16800
H932        H  0.14758319  0.99565207  0.94123896     0.16800
H933        H  0.99997918  0.02042587  0.54932209     0.30100
H934        H  0.99997649  0.97970334  0.95098154     0.30100
C935        C  0.14641686  0.50007815  0.75015926     0.01500
C936        C  0.85353984  0.00005814  0.75014427     0.01500
O937        O  0.79993401  0.59029668  0.86771384    -0.67800
O938        O  0.74412687  0.65994120  0.95261409    -0.68100
O939        O  0.74413647  0.59031407  0.95278772    -0.67900
O940        O  0.79991636  0.65984235  0.86753402    -0.67900
O941        O  0.75584517  0.65981966  0.79751014    -0.67900
O942        O  0.70006717  0.59029144  0.88276090    -0.67900
O943        O  0.70005175  0.65983523  0.88259619    -0.67800
O944        O  0.75586518  0.59018533  0.79768707    -0.68000
V945        V  0.77118747  0.62509752  0.90877406     1.35200
V946        V  0.72879839  0.62503427  0.84152385     1.35200
C947        C  0.78757271  0.57874469  0.81811936     0.81400
C948        C  0.71241601  0.67137834  0.93219772     0.81500
C949        C  0.71243265  0.57882981  0.93241570     0.81300
C950        C  0.78754678  0.67130743  0.81788325     0.81300
O951        O  0.70000033  0.90984433  0.61801644    -0.67800
O952        O  0.75602020  0.84018387  0.70257124    -0.68100
O953        O  0.75599330  0.90982033  0.70276582    -0.67900
O954        O  0.70002498  0.84028786  0.61783406    -0.67900
O955        O  0.74392534  0.84031853  0.54755740    -0.67900
O956        O  0.79989741  0.90985686  0.63249418    -0.67900
O957        O  0.79992425  0.84030330  0.63230057    -0.67800
O958        O  0.74390457  0.90996211  0.54774622    -0.68000
V959        V  0.72884755  0.87503585  0.65890440     1.35200
V960        V  0.77107467  0.87510920  0.59141422     1.35200
C961        C  0.71225423  0.92141181  0.56836788     0.81400
C962        C  0.78767244  0.82873718  0.68195059     0.81500
C963        C  0.78763694  0.92132264  0.68220805     0.81300
C964        C  0.71228593  0.82881101  0.56813004     0.81300
O965        O  0.20000070  0.65990674  0.86755670    -0.67800
O966        O  0.25578094  0.59038449  0.95281911    -0.68100
O967        O  0.25579844  0.66001201  0.95263019    -0.67900
O968        O  0.19997683  0.59035925  0.86775030    -0.67900
O969        O  0.24403876  0.59024631  0.79771751    -0.67900
O970        O  0.29986898  0.65989660  0.88260977    -0.67900
O971        O  0.29984199  0.59035388  0.88278373    -0.67800
O972        O  0.24406841  0.65988086  0.79753158    -0.68000
V973        V  0.22872966  0.62516464  0.90880069     1.35200
V974        V  0.27111315  0.62509599  0.84154603     1.35200
C975        C  0.21236973  0.67137045  0.81790548     0.81400
C976        C  0.28748026  0.57889685  0.93244277     0.81500
C977        C  0.28751072  0.67144450  0.93220958     0.81300
C978        C  0.21233423  0.57880360  0.81815692     0.81300
O979        O  0.29997930  0.84034507  0.61785419    -0.67800
O980        O  0.24401038  0.90988104  0.70276935    -0.68100
O981        O  0.24399005  0.84024490  0.70260092    -0.67900
O982        O  0.29999458  0.90990209  0.61801159    -0.67900
O983        O  0.25607993  0.91000824  0.54775245    -0.67900
O984        O  0.20008348  0.84034641  0.63232949    -0.67900
O985        O  0.20009648  0.90989856  0.63250845    -0.67800
O986        O  0.25607522  0.84036517  0.54757921    -0.66400
V987        V  0.27115594  0.87509444  0.65891655     1.35200
V988        V  0.22892243  0.87515352  0.59143190     1.35200
C989        C  0.28771791  0.82886405  0.56815124     0.81400
C990        C  0.21236098  0.92137353  0.68221562     0.81500
C991        C  0.21233744  0.82879174  0.68198614     0.81300
C992        C  0.28773065  0.92146516  0.56836523     0.81300
C993        C  0.80938542  0.94719388  0.71426003    -0.09300
C994        C  0.82899014  0.97010488  0.73550609    -0.10900
C995        C  0.82893515  0.52997728  0.76478754    -0.09300
C996        C  0.80930058  0.55286447  0.78604842    -0.10900
C997        C  0.17099171  0.97014251  0.73551660    -0.09300
C998        C  0.19060811  0.94724136  0.71426734    -0.10900
C999        C  0.17099485  0.53001397  0.76482478    -0.09300
C1000       C  0.19061023  0.55291374  0.78609509    -0.10900
C1001       C  0.09921702  0.50723955  0.65603229    -0.09300
C1002       C  0.12151287  0.50681844  0.69793239    -0.10900
C1003       C  0.09921511  0.99288720  0.84426523    -0.09300
C1004       C  0.12151039  0.99332819  0.80237113    -0.10900
C1005       C  0.87844495  0.99333051  0.80236707    -0.09300
C1006       C  0.90073849  0.99289752  0.84426497    -0.10900
C1007       C  0.90074282  0.50723496  0.65603051    -0.09300
C1008       C  0.87844432  0.50680827  0.69792450    -0.10900
C1009       C  0.80925710  0.69714649  0.78568598    -0.09300
C1010       C  0.82889635  0.72000869  0.76435467    -0.10900
C1011       C  0.80943995  0.80281896  0.71386603    -0.09300
C1012       C  0.82903446  0.77988045  0.73505092    -0.10900
C1013       C  0.17095423  0.77995652  0.73509988    -0.09300
C1014       C  0.19056696  0.80288281  0.71391672    -0.10900
C1015       C  0.17103866  0.72008462  0.76438515    -0.09300
C1016       C  0.19066489  0.69721310  0.78571156    -0.10900
C1017       C  0.12152539  0.74321584  0.69750197    -0.09300
C1018       C  0.09922440  0.74274880  0.65561140    -0.10900
C1019       C  0.09921284  0.75708744  0.84384557    -0.09300
C1020       C  0.12150361  0.75669473  0.80194392    -0.10900
C1021       C  0.90075517  0.75698514  0.84381256    -0.09300
C1022       C  0.87846447  0.75659132  0.80190786    -0.10900
C1023       C  0.87843001  0.74310428  0.69746857    -0.09300
C1024       C  0.90073112  0.74263713  0.65558017    -0.10900
C1025       C  0.69054431  0.80291210  0.53612588    -0.09300
C1026       C  0.67094504  0.77997299  0.51495211    -0.10900
C1027       C  0.69068901  0.69723686  0.96431519    -0.09300
C1028       C  0.67105984  0.72010089  0.98565659    -0.10900
C1029       C  0.32889558  0.72015778  0.98565365    -0.09300
C1030       C  0.30924903  0.69730092  0.96432080    -0.10900
C1031       C  0.30946190  0.80296792  0.53614530    -0.09300
C1032       C  0.32905365  0.78002835  0.51495910    -0.10900
C1033       C  0.40077568  0.75707341  0.90623931    -0.09300
C1034       C  0.37848737  0.75671385  0.94814341    -0.10900
C1035       C  0.37842688  0.74322525  0.55258296    -0.09300
C1036       C  0.40073046  0.74272322  0.59447201    -0.10900
C1037       C  0.59920048  0.75704793  0.90625470    -0.09300
C1038       C  0.62148903  0.75667930  0.94815884    -0.10900
C1039       C  0.59925500  0.74270051  0.59448966    -0.09300
C1040       C  0.62155550  0.74319407  0.55259871    -0.10900
C1041       C  0.69071326  0.55300015  0.96461964    -0.09300
C1042       C  0.67106340  0.53014640  0.98595363    -0.10900
C1043       C  0.69049142  0.94733463  0.53645391    -0.09300
C1044       C  0.67090329  0.97027647  0.51526472    -0.10900
C1045       C  0.32905207  0.97034717  0.51525886    -0.09300
C1046       C  0.30947952  0.94739446  0.53644686    -0.10900
C1047       C  0.32885840  0.53021946  0.98596958    -0.09300
C1048       C  0.30920014  0.55306911  0.96464568    -0.10900
C1049       C  0.40071805  0.50763797  0.59472722    -0.09300
C1050       C  0.37841646  0.50715871  0.55283937    -0.10900
C1051       C  0.40074288  0.99329581  0.90649236    -0.09300
C1052       C  0.37845467  0.99367741  0.94839849    -0.10900
C1053       C  0.62148230  0.99357879  0.94839859    -0.09300
C1054       C  0.59919229  0.99319946  0.90649170    -0.10900
C1055       C  0.62151972  0.50706916  0.55283703    -0.09300
C1056       C  0.59921806  0.50755130  0.59472375    -0.10900
loop_ 
_geom_bond_atom_site_label_1 
_geom_bond_atom_site_label_2 
_geom_bond_distance 
_geom_bond_site_symmetry_2 
_ccdc_geom_bond_type 
N1           H33   1.042       .  S
N1            C5   1.356       .  A
N1          C534   1.356       .  A
N2            C9   1.350       .  A
N2           C10   1.349       .  A
N3           H34   1.042       .  S
N3            C8   1.356       .  A
N3          C535   1.356       .  A
N4           C11   1.350   1_545  A
N4           C12   1.349       .  A
C5           C13   1.383       .  A
C5           C21   1.410       .  A
C6          N529   1.356   1_545  A
C6           C22   1.410   1_545  A
C6           C14   1.383       .  A
C7          N531   1.356       .  A
C7           C15   1.383       .  A
C7           C24   1.410       .  A
C8           C23   1.410       .  A
C8           C16   1.383   1_545  A
C9           C21   1.406       .  A
C9           C17   1.387       .  A
C10          C24   1.406       .  A
C10          C18   1.387       .  A
C11          C19   1.387       .  A
C11          C22   1.406       .  A
C12          C20   1.387       .  A
C12          C23   1.406       .  A
C13         C542   1.371       .  A
C13          H25   1.082       .  S
C14         C541   1.371       .  A
C14          H26   1.082       .  S
C15         C544   1.371       .  A
C15          H27   1.082       .  S
C16         C543   1.371       .  A
C16          H28   1.082       .  S
C17          C18   1.373       .  A
C17          H29   1.083       .  S
C18          H30   1.083       .  S
C19          C20   1.373   1_565  A
C19          H31   1.083       .  S
C20          H32   1.083       .  S
C21         C262   1.452       .  S
C22         C787   1.452       .  S
C23         C257   1.452       .  S
C24         C792   1.452       .  S
C35         C255   1.466       .  S
C35        C1045   1.466   1_545  S
C35         C522   1.467       .  S
C35         C788   1.467   1_545  S
C36         C250   1.466       .  S
C36        C1044   1.466   1_545  S
C36         C789   1.467   1_545  S
C36         C527   1.467       .  S
N37          H69   1.042       .  S
N37          C42   1.356       .  A
N37          C41   1.356       .  A
N38          C45   1.349       .  A
N38          C46   1.350       .  A
N39          H70   1.042       .  S
N39          C44   1.355       .  A
N39          C43   1.355       .  A
N40          C47   1.349       .  A
N40          C48   1.350       .  A
C41          C49   1.383       .  A
C41          C57   1.410       .  A
C42          C58   1.410       .  A
C42          C50   1.383       .  A
C43          C51   1.383       .  A
C43          C60   1.410       .  A
C44          C59   1.410       .  A
C44          C52   1.383       .  A
C45          C57   1.406       .  A
C45          C53   1.387       .  A
C46          C60   1.406       .  A
C46          C54   1.387       .  A
C47          C55   1.387       .  A
C47          C58   1.406       .  A
C48          C56   1.387       .  A
C48          C59   1.406       .  A
C49          C50   1.371       .  A
C49          H61   1.082       .  S
C50          H62   1.082       .  S
C51          C52   1.371       .  A
C51          H63   1.082       .  S
C52          H64   1.082       .  S
C53          C54   1.373       .  A
C53          H65   1.083       .  S
C54          H66   1.083       .  S
C55          C56   1.373       .  A
C55          H67   1.083       .  S
C56          H68   1.083       .  S
C57         C247   1.452       .  S
C58         C244   1.452       .  S
C59         C241   1.452       .  S
C60         C245   1.452       .  S
C71         C237   1.466       .  S
C71         C242   1.467       .  S
C71         C504   1.466       .  S
C71         C507   1.467       .  S
C72         C236   1.466       .  S
C72         C246   1.467       .  S
C72         C498   1.466       .  S
C72         C512   1.467       .  S
N73         H105   1.042       .  S
N73          C78   1.356       .  A
N73          C77   1.356   1_655  A
N74          C82   1.350       .  A
N74         C345   1.349       .  A
N75         H106   1.042       .  S
N75          C80   1.356       .  A
N75          C79   1.356   1_655  A
N76          C84   1.350       .  A
N76         C347   1.349       .  A
C77          C85   1.383       .  A
C77          C93   1.410       .  A
C78          C94   1.410       .  A
C78          C86   1.383       .  A
C79          C87   1.383       .  A
C79          C96   1.410       .  A
C80          C95   1.410       .  A
C80          C88   1.383       .  A
C81         N338   1.349   1_554  A
C81          C93   1.406       .  A
C81          C89   1.387       .  A
C82          C96   1.406       .  A
C82          C90   1.387       .  A
C83         N340   1.349   1_554  A
C83          C91   1.387       .  A
C83          C94   1.406       .  A
C84          C92   1.387       .  A
C84          C95   1.406       .  A
C85          C86   1.371   1_455  A
C85          H97   1.082       .  S
C86          H98   1.082       .  S
C87          C88   1.371   1_455  A
C87          H99   1.082       .  S
C88         H100   1.082       .  S
C89         C354   1.373   1_554  A
C89         H101   1.083       .  S
C90         C353   1.373       .  A
C90         H102   1.083       .  S
C91         C356   1.373   1_554  A
C91         H103   1.083       .  S
C92         C355   1.373       .  A
C92         H104   1.083       .  S
C93         C226   1.452       .  S
C94         C232   1.452       .  S
C95         C229   1.452       .  S
C96         C227   1.452       .  S
C107        C221   1.466       .  S
C107        C223   1.466       .  S
C107        C225   1.467       .  S
C107        C228   1.467       .  S
C108        C218   1.466       .  S
C108        C220   1.466       .  S
C108        C230   1.467       .  S
C108        C231   1.467       .  S
N109        H141   1.042       .  S
N109        C114   1.356   1_655  A
N109        C113   1.356       .  A
N110        C118   1.349       .  A
N110        C381   1.350       .  A
N111        H142   1.042       .  S
N111        C116   1.356   1_655  A
N111        C115   1.356       .  A
N112        C120   1.349       .  A
N112        C383   1.350       .  A
C113        C121   1.383       .  A
C113        C129   1.410       .  A
C114        C130   1.410       .  A
C114        C122   1.383       .  A
C115        C123   1.383       .  A
C115        C132   1.410       .  A
C116        C131   1.410       .  A
C116        C124   1.383       .  A
C117        N374   1.350       .  A
C117        C129   1.406       .  A
C117        C125   1.387       .  A
C118        C132   1.406       .  A
C118        C126   1.387       .  A
C119        N376   1.350       .  A
C119        C127   1.387       .  A
C119        C130   1.406       .  A
C120        C128   1.387       .  A
C120        C131   1.406       .  A
C121        C122   1.371   1_655  A
C121        H133   1.082       .  S
C122        H134   1.082       .  S
C123        C124   1.371   1_655  A
C123        H135   1.082       .  S
C124        H136   1.082       .  S
C125        C390   1.373   1_554  A
C125        H137   1.083       .  S
C126        C389   1.373       .  A
C126        H138   1.083       .  S
C127        C392   1.373   1_554  A
C127        H139   1.083       .  S
C128        C391   1.373       .  A
C128        H140   1.083       .  S
C129        C743   1.452       .  S
C130        C737   1.452       .  S
C131        C211   1.452       .  S
C132        C214   1.452       .  S
C143        C207   1.466       .  S
C143        C210   1.467       .  S
C143        C733   1.466   1_545  S
C143        C740   1.467   1_545  S
C144        C202   1.466       .  S
C144        C213   1.467       .  S
C144        C731   1.466       .  S
C144        C744   1.467       .  S
O145        V153   1.900       .  S
O145        C155   1.263       .  A
O146        V153   1.902       .  S
O146        C156   1.263       .  A
O147        V153   1.902       .  S
O147        C157   1.263       .  A
O148        V153   1.900       .  S
O148        C158   1.263       .  A
O149        V154   1.902       .  S
O149        C158   1.263       .  A
O150        V154   1.900       .  S
O150        C157   1.263       .  A
O151        V154   1.900       .  S
O151        C156   1.263       .  A
O152        V154   1.902       .  S
O152        C155   1.263       .  A
V153        V154   2.091       .  T
C155        C204   1.436       .  S
C156        C235   1.436       .  S
C157        C249   1.436       .  S
C158        C217   1.436       .  S
O159        V167   1.900       .  S
O159        C169   1.263       .  A
O160        V167   1.902       .  S
O160        C170   1.263       .  A
O161        V167   1.902       .  S
O161        C171   1.263       .  A
O162        V167   1.899       .  S
O162        C172   1.263       .  A
O163        V168   1.902       .  S
O163        C172   1.263       .  A
O164        V168   1.900       .  S
O164        C171   1.263       .  A
O165        V168   1.900       .  S
O165        C170   1.263       .  A
O166        V168   1.902       .  S
O166        C169   1.263       .  A
V167        V168   2.091       .  T
C169        C251   1.436       .  S
C170        C219   1.436       .  S
C171        C201   1.435       .  S
C172        C233   1.436       .  S
O173        V181   1.900       .  S
O173        C183   1.263       .  A
O174        V181   1.902       .  S
O174        C184   1.263       .  A
O175        V181   1.902       .  S
O175        C185   1.263       .  A
O176        V181   1.900       .  S
O176        C186   1.263       .  A
O177        V182   1.902       .  S
O177        C186   1.263       .  A
O178        V182   1.900       .  S
O178        C185   1.263       .  A
O179        V182   1.899       .  S
O179        C184   1.263       .  A
O180        V182   1.902       .  S
O180        C183   1.263       .  A
V181        V182   2.091       .  T
C183        C224   1.436       .  S
C184        C256   1.435       .  S
C185        C238   1.436       .  S
C186        C208   1.436       .  S
O187        V195   1.900       .  S
O187        C197   1.263       .  A
O188        V195   1.902       .  S
O188        C198   1.263       .  A
O189        V195   1.902       .  S
O189        C199   1.263       .  A
O190        V195   1.900       .  S
O190        C200   1.263       .  A
O191        V196   1.902       .  S
O191        C200   1.263       .  A
O192        V196   1.900       .  S
O192        C199   1.263       .  A
O193        V196   1.900       .  S
O193        C198   1.263       .  A
O194        V196   1.902       .  S
O194        C197   1.263       .  A
V195        V196   2.091       .  T
C197        C239   1.436       .  S
C198        C206   1.436       .  S
C199        C222   1.436       .  S
C200        C254   1.436       .  S
C201        C202   1.207       .  T
C203        C672   1.466       .  S
C203        C204   1.207       .  T
C205        C671   1.466       .  S
C205        C206   1.207       .  T
C207        C208   1.207       .  T
C209        C658   1.452       .  S
C209        C210   1.208       .  T
C211        C212   1.208       .  T
C212        C671   1.467       .  S
C213        C214   1.208       .  T
C215        C657   1.452       .  S
C215        C216   1.208       .  T
C216        C672   1.467       .  S
C217        C218   1.207       .  T
C219        C220   1.207       .  T
C221        C222   1.207       .  T
C223        C224   1.207       .  T
C225        C226   1.208       .  T
C227        C228   1.208       .  T
C229        C230   1.208       .  T
C231        C232   1.208       .  T
C233        C234   1.207       .  T
C234        C336   1.466       .  S
C235        C236   1.207       .  T
C237        C238   1.207       .  T
C239        C240   1.207       .  T
C240        C335   1.466       .  S
C241        C242   1.208       .  T
C243        C335   1.467       .  S
C243        C244   1.208       .  T
C245        C246   1.208       .  T
C247        C248   1.208       .  T
C248        C336   1.467       .  S
C249        C250   1.207       .  T
C251        C252   1.207       .  T
C252        C828   1.466       .  S
C253        C827   1.466       .  S
C253        C254   1.207       .  T
C255        C256   1.207       .  T
C257        C258   1.208       .  T
C258        C299   1.467       .  S
C259        C550   1.452       .  S
C259        C260   1.208       .  T
C260        C563   1.467       .  S
C261        C564   1.467       .  S
C261        C262   1.208       .  T
C263        C300   1.467       .  S
C263        C264   1.208       .  T
C264        C552   1.452       .  S
N265        H297   1.042       .  S
N265        C798   1.356       .  A
N265        C269   1.356       .  A
N266        C273   1.350       .  A
N266        C274   1.349       .  A
N267        H298   1.042       .  S
N267        C272   1.356       .  A
N267        C799   1.356       .  A
N268        C275   1.350   1_545  A
N268        C276   1.349       .  A
C269        C277   1.383       .  A
C269        C285   1.410       .  A
C270        N793   1.356   1_545  A
C270        C286   1.410   1_545  A
C270        C278   1.383       .  A
C271        N795   1.356       .  A
C271        C279   1.383       .  A
C271        C288   1.410       .  A
C272        C287   1.410       .  A
C272        C280   1.383   1_545  A
C273        C285   1.406       .  A
C273        C281   1.387       .  A
C274        C288   1.406       .  A
C274        C282   1.387       .  A
C275        C283   1.387       .  A
C275        C286   1.406       .  A
C276        C284   1.387       .  A
C276        C287   1.406       .  A
C277        C806   1.371       .  A
C277        H289   1.082       .  S
C278        C805   1.371       .  A
C278        H290   1.082       .  S
C279        C808   1.371       .  A
C279        H291   1.082       .  S
C280        C807   1.371       .  A
C280        H292   1.082       .  S
C281        C282   1.373       .  A
C281        H293   1.083       .  S
C282        H294   1.083       .  S
C283        C284   1.373   1_565  A
C283        H295   1.083       .  S
C284        H296   1.083       .  S
C285        C526   1.452       .  S
C286       C1051   1.452       .  S
C287        C521   1.452       .  S
C288       C1056   1.452       .  S
C299        C781   1.466   1_545  S
C299        C519   1.466   1_554  S
C299       C1052   1.467   1_544  S
C300        C514   1.466   1_554  S
C300        C780   1.466   1_545  S
C300       C1053   1.467   1_544  S
N301        H333   1.042       .  S
N301        C306   1.356       .  A
N301        C305   1.356       .  A
N302        C309   1.349       .  A
N302        C310   1.350       .  A
N303        H334   1.042       .  S
N303        C308   1.355       .  A
N303        C307   1.355       .  A
N304        C311   1.349       .  A
N304        C312   1.350       .  A
C305        C313   1.383       .  A
C305        C321   1.410       .  A
C306        C322   1.410       .  A
C306        C314   1.383       .  A
C307        C315   1.383       .  A
C307        C324   1.410       .  A
C308        C323   1.410       .  A
C308        C316   1.383       .  A
C309        C321   1.406       .  A
C309        C317   1.387       .  A
C310        C324   1.406       .  A
C310        C318   1.387       .  A
C311        C319   1.387       .  A
C311        C322   1.406       .  A
C312        C320   1.387       .  A
C312        C323   1.406       .  A
C313        C314   1.371       .  A
C313        H325   1.082       .  S
C314        H326   1.082       .  S
C315        C316   1.371       .  A
C315        H327   1.082       .  S
C316        H328   1.082       .  S
C317        C318   1.373       .  A
C317        H329   1.083       .  S
C318        H330   1.083       .  S
C319        C320   1.373       .  A
C319        H331   1.083       .  S
C320        H332   1.083       .  S
C321        C511   1.452       .  S
C322        C508   1.452       .  S
C323        C505   1.452       .  S
C324        C509   1.452       .  S
C335        C501   1.466   1_554  S
C335        C506   1.467   1_554  S
C336        C500   1.466   1_554  S
C336        C510   1.467   1_554  S
N337        H369   1.042       .  S
N337        C342   1.356       .  A
N337        C341   1.356   1_655  A
N338        C346   1.350       .  A
N339        H370   1.042       .  S
N339        C344   1.356       .  A
N339        C343   1.356   1_655  A
N340        C348   1.350       .  A
C341        C349   1.383       .  A
C341        C357   1.410       .  A
C342        C358   1.410       .  A
C342        C350   1.383       .  A
C343        C351   1.383       .  A
C343        C360   1.410       .  A
C344        C359   1.410       .  A
C344        C352   1.383       .  A
C345        C357   1.406       .  A
C345        C353   1.387       .  A
C346        C360   1.406       .  A
C346        C354   1.387       .  A
C347        C355   1.387       .  A
C347        C358   1.406       .  A
C348        C356   1.387       .  A
C348        C359   1.406       .  A
C349        C350   1.371   1_455  A
C349        H361   1.082       .  S
C350        H362   1.082       .  S
C351        C352   1.371   1_455  A
C351        H363   1.082       .  S
C352        H364   1.082       .  S
C353        H365   1.083       .  S
C354        H366   1.083       .  S
C355        H367   1.083       .  S
C356        H368   1.083       .  S
C357        C490   1.452       .  S
C358        C496   1.452       .  S
C359        C493   1.452       .  S
C360        C491   1.452       .  S
C371        C485   1.466       .  S
C371        C487   1.466       .  S
C371        C489   1.467       .  S
C371        C492   1.467       .  S
C372        C482   1.466       .  S
C372        C484   1.466       .  S
C372        C494   1.467       .  S
C372        C495   1.467       .  S
N373        H405   1.042       .  S
N373        C378   1.356   1_655  A
N373        C377   1.356       .  A
N374        C382   1.349   1_554  A
N375        H406   1.042       .  S
N375        C380   1.356   1_655  A
N375        C379   1.356       .  A
N376        C384   1.349   1_554  A
C377        C385   1.383       .  A
C377        C393   1.410       .  A
C378        C394   1.410       .  A
C378        C386   1.383       .  A
C379        C387   1.383       .  A
C379        C396   1.410       .  A
C380        C395   1.410       .  A
C380        C388   1.383       .  A
C381        C393   1.406       .  A
C381        C389   1.387       .  A
C382        C396   1.406       .  A
C382        C390   1.387       .  A
C383        C391   1.387       .  A
C383        C394   1.406       .  A
C384        C392   1.387       .  A
C384        C395   1.406       .  A
C385        C386   1.371   1_655  A
C385        H397   1.082       .  S
C386        H398   1.082       .  S
C387        C388   1.371   1_655  A
C387        H399   1.082       .  S
C388        H400   1.082       .  S
C389        H401   1.083       .  S
C390        H402   1.083       .  S
C391        H403   1.083       .  S
C392        H404   1.083       .  S
C393       C1007   1.452       .  S
C394       C1001   1.452       .  S
C395        C475   1.452       .  S
C396        C478   1.452       .  S
C407        C997   1.466   1_545  S
C407        C471   1.466       .  S
C407        C474   1.467       .  S
C407       C1004   1.467   1_545  S
C408        C466   1.466       .  S
C408        C995   1.466       .  S
C408        C477   1.467       .  S
C408       C1008   1.467       .  S
O409        V417   1.900       .  S
O409        C419   1.263       .  A
O410        V417   1.902       .  S
O410        C420   1.263       .  A
O411        V417   1.902       .  S
O411        C421   1.263       .  A
O412        V417   1.900       .  S
O412        C422   1.263       .  A
O413        V418   1.902       .  S
O413        C422   1.263       .  A
O414        V418   1.900       .  S
O414        C421   1.263       .  A
O415        V418   1.900       .  S
O415        C420   1.263       .  A
O416        V418   1.902       .  S
O416        C419   1.263       .  A
V417        V418   2.091       .  T
C419        C468   1.436       .  S
C420        C499   1.436       .  S
C421        C513   1.436       .  S
C422        C481   1.436       .  S
O423        V431   1.900       .  S
O423        C433   1.263       .  A
O424        V431   1.902       .  S
O424        C434   1.263       .  A
O425        V431   1.902       .  S
O425        C435   1.263       .  A
O426        V431   1.899       .  S
O426        C436   1.263       .  A
O427        V432   1.902       .  S
O427        C436   1.263       .  A
O428        V432   1.900       .  S
O428        C435   1.263       .  A
O429        V432   1.900       .  S
O429        C434   1.263       .  A
O430        V432   1.902       .  S
O430        C433   1.263       .  A
V431        V432   2.091       .  T
C433        C515   1.436       .  S
C434        C483   1.436       .  S
C435        C465   1.435       .  S
C436        C497   1.436       .  S
O437        V445   1.900       .  S
O437        C447   1.263       .  A
O438        V445   1.902       .  S
O438        C448   1.263       .  A
O439        V445   1.902       .  S
O439        C449   1.263       .  A
O440        V445   1.900       .  S
O440        C450   1.263       .  A
O441        V446   1.902       .  S
O441        C450   1.263       .  A
O442        V446   1.900       .  S
O442        C449   1.263       .  A
O443        V446   1.899       .  S
O443        C448   1.263       .  A
O444        V446   1.902       .  S
O444        C447   1.263       .  A
V445        V446   2.091       .  T
C447        C488   1.436       .  S
C448        C520   1.435       .  S
C449        C502   1.436       .  S
C450        C472   1.436       .  S
O451        V459   1.900       .  S
O451        C461   1.263       .  A
O452        V459   1.902       .  S
O452        C462   1.263       .  A
O453        V459   1.902       .  S
O453        C463   1.263       .  A
O454        V459   1.900       .  S
O454        C464   1.263       .  A
O455        V460   1.902       .  S
O455        C464   1.263       .  A
O456        V460   1.900       .  S
O456        C463   1.263       .  A
O457        V460   1.900       .  S
O457        C462   1.263       .  A
O458        V460   1.902       .  S
O458        C461   1.263       .  A
V459        V460   2.091       .  T
C461        C503   1.436       .  S
C462        C470   1.436       .  S
C463        C486   1.436       .  S
C464        C518   1.436       .  S
C465        C466   1.207       .  T
C467        C936   1.466       .  S
C467        C468   1.207       .  T
C469        C935   1.466       .  S
C469        C470   1.207       .  T
C471        C472   1.207       .  T
C473        C922   1.452       .  S
C473        C474   1.208       .  T
C475        C476   1.208       .  T
C476        C935   1.467       .  S
C477        C478   1.208       .  T
C479        C921   1.452       .  S
C479        C480   1.208       .  T
C480        C936   1.467       .  S
C481        C482   1.207       .  T
C483        C484   1.207       .  T
C485        C486   1.207       .  T
C487        C488   1.207       .  T
C489        C490   1.208       .  T
C491        C492   1.208       .  T
C493        C494   1.208       .  T
C495        C496   1.208       .  T
C497        C498   1.207       .  T
C499        C500   1.207       .  T
C501        C502   1.207       .  T
C503        C504   1.207       .  T
C505        C506   1.208       .  T
C507        C508   1.208       .  T
C509        C510   1.208       .  T
C511        C512   1.208       .  T
C513        C514   1.207       .  T
C515        C516   1.207       .  T
C516        C564   1.466       .  S
C517        C563   1.466       .  S
C517        C518   1.207       .  T
C519        C520   1.207       .  T
C521        C522   1.208       .  T
C523        C814   1.452       .  S
C523        C524   1.208       .  T
C524        C827   1.467   1_556  S
C525        C828   1.467   1_556  S
C525        C526   1.208       .  T
C527        C528   1.208       .  T
C528        C816   1.452       .  S
N529        H561   1.042       .  S
N529        C533   1.356   1_565  A
N530        C537   1.350   1_545  A
N530        C538   1.349       .  A
N531        H562   1.042       .  S
N531        C536   1.356       .  A
N532        C539   1.350       .  A
N532        C540   1.349       .  A
C533        C541   1.383       .  A
C533        C549   1.410   1_545  A
C534        C550   1.410       .  A
C534        C542   1.383       .  A
C535        C543   1.383   1_545  A
C535        C552   1.410       .  A
C536        C551   1.410       .  A
C536        C544   1.383       .  A
C537        C549   1.406       .  A
C537        C545   1.387       .  A
C538        C552   1.406       .  A
C538        C546   1.387       .  A
C539        C547   1.387       .  A
C539        C550   1.406       .  A
C540        C548   1.387       .  A
C540        C551   1.406       .  A
C541        H553   1.082       .  S
C542        H554   1.082       .  S
C543        H555   1.082       .  S
C544        H556   1.082       .  S
C545        C546   1.373   1_565  A
C545        H557   1.083       .  S
C546        H558   1.083       .  S
C547        C548   1.373       .  A
C547        H559   1.083       .  S
C548        H560   1.083       .  S
C549        C790   1.452       .  S
C551        C785   1.452       .  S
C563        C783   1.466       .  S
C563       C1050   1.467       .  S
C564        C778   1.466       .  S
C564       C1055   1.467       .  S
N565        H597   1.042       .  S
N565        C570   1.356       .  A
N565        C569   1.356       .  A
N566        C573   1.349       .  A
N566        C574   1.350       .  A
N567        H598   1.042       .  S
N567        C572   1.355       .  A
N567        C571   1.355       .  A
N568        C575   1.349       .  A
N568        C576   1.350       .  A
C569        C577   1.383       .  A
C569        C585   1.410       .  A
C570        C586   1.410       .  A
C570        C578   1.383       .  A
C571        C579   1.383       .  A
C571        C588   1.410       .  A
C572        C587   1.410       .  A
C572        C580   1.383       .  A
C573        C585   1.406       .  A
C573        C581   1.387       .  A
C574        C588   1.406       .  A
C574        C582   1.387       .  A
C575        C583   1.387       .  A
C575        C586   1.406       .  A
C576        C584   1.387       .  A
C576        C587   1.406       .  A
C577        C578   1.371       .  A
C577        H589   1.082       .  S
C578        H590   1.082       .  S
C579        C580   1.371       .  A
C579        H591   1.082       .  S
C580        H592   1.082       .  S
C581        C582   1.373       .  A
C581        H593   1.083       .  S
C582        H594   1.083       .  S
C583        C584   1.373       .  A
C583        H595   1.083       .  S
C584        H596   1.083       .  S
C585        C775   1.452       .  S
C586        C772   1.452       .  S
C587        C769   1.452       .  S
C588        C773   1.452       .  S
C599        C765   1.466       .  S
C599       C1032   1.466       .  S
C599        C770   1.467       .  S
C599       C1035   1.467       .  S
C600       C1026   1.466       .  S
C600        C764   1.466       .  S
C600        C774   1.467       .  S
C600       C1040   1.467       .  S
N601        H633   1.042       .  S
N601        C606   1.356       .  A
N601        C605   1.356   1_655  A
N602        C873   1.349       .  A
N602        C610   1.350       .  A
N603        H634   1.042       .  S
N603        C608   1.356       .  A
N603        C607   1.356   1_655  A
N604        C875   1.349       .  A
N604        C612   1.350       .  A
C605        C613   1.383       .  A
C605        C621   1.410       .  A
C606        C622   1.410       .  A
C606        C614   1.383       .  A
C607        C615   1.383       .  A
C607        C624   1.410       .  A
C608        C623   1.410       .  A
C608        C616   1.383       .  A
C609        N866   1.349   1_554  A
C609        C621   1.406       .  A
C609        C617   1.387       .  A
C610        C624   1.406       .  A
C610        C618   1.387       .  A
C611        N868   1.349   1_554  A
C611        C619   1.387       .  A
C611        C622   1.406       .  A
C612        C620   1.387       .  A
C612        C623   1.406       .  A
C613        C614   1.371   1_455  A
C613        H625   1.082       .  S
C614        H626   1.082       .  S
C615        C616   1.371   1_455  A
C615        H627   1.082       .  S
C616        H628   1.082       .  S
C617        C882   1.373   1_554  A
C617        H629   1.083       .  S
C618        C881   1.373       .  A
C618        H630   1.083       .  S
C619        C884   1.373   1_554  A
C619        H631   1.083       .  S
C620        C883   1.373       .  A
C620        H632   1.083       .  S
C621        C754   1.452       .  S
C622        C760   1.452       .  S
C623        C757   1.452       .  S
C624        C755   1.452       .  S
C635        C749   1.466       .  S
C635        C751   1.466       .  S
C635        C753   1.467       .  S
C635        C756   1.467       .  S
C636        C746   1.466       .  S
C636        C748   1.466       .  S
C636        C758   1.467       .  S
C636        C759   1.467       .  S
N637        H669   1.042       .  S
N637        C642   1.356   1_655  A
N637        C641   1.356       .  A
N638        C909   1.350       .  A
N638        C646   1.349   1_545  A
N639        H670   1.042       .  S
N639        C644   1.356   1_655  A
N639        C643   1.356   1_565  A
N640        C911   1.350       .  A
N640        C648   1.349   1_545  A
C641        C649   1.383   1_545  A
C641        C657   1.410       .  A
C642        C658   1.410       .  A
C642        C650   1.383   1_545  A
C643        C651   1.383       .  A
C643        C660   1.410   1_545  A
C644        C659   1.410       .  A
C644        C652   1.383   1_565  A
C645        N902   1.350       .  A
C645        C657   1.406       .  A
C645        C653   1.387       .  A
C646        C660   1.406       .  A
C646        C654   1.387       .  A
C647        N904   1.350       .  A
C647        C655   1.387       .  A
C647        C658   1.406       .  A
C648        C656   1.387       .  A
C648        C659   1.406       .  A
C649        C650   1.371   1_655  A
C649        H661   1.082       .  S
C650        H662   1.082       .  S
C651        C652   1.371   1_655  A
C651        H663   1.082       .  S
C652        H664   1.082       .  S
C653        C918   1.373   1_544  A
C653        H665   1.083       .  S
C654        C917   1.373   1_565  A
C654        H666   1.083       .  S
C655        C920   1.373   1_544  A
C655        H667   1.083       .  S
C656        C919   1.373   1_565  A
C656        H668   1.083       .  S
C659        C739   1.452       .  S
C660        C742   1.452       .  S
C671        C735   1.466       .  S
C671        C738   1.467       .  S
C672        C730   1.466   1_545  S
C672        C741   1.467   1_545  S
O673        V681   1.900       .  S
O673        C683   1.263       .  A
O674        V681   1.902       .  S
O674        C684   1.263       .  A
O675        V681   1.902       .  S
O675        C685   1.263       .  A
O676        V681   1.900       .  S
O676        C686   1.263       .  A
O677        V682   1.902       .  S
O677        C686   1.263       .  A
O678        V682   1.900       .  S
O678        C685   1.263       .  A
O679        V682   1.900       .  S
O679        C684   1.263       .  A
O680        V682   1.902       .  S
O680        C683   1.263       .  A
V681        V682   2.091       .  T
C683        C732   1.436       .  S
C684        C763   1.436       .  S
C685        C777   1.436       .  S
C686        C745   1.436       .  S
O687        V695   1.900       .  S
O687        C697   1.263       .  A
O688        V695   1.902       .  S
O688        C698   1.263       .  A
O689        V695   1.902       .  S
O689        C699   1.263       .  A
O690        V695   1.899       .  S
O690        C700   1.263       .  A
O691        V696   1.902       .  S
O691        C700   1.263       .  A
O692        V696   1.900       .  S
O692        C699   1.263       .  A
O693        V696   1.900       .  S
O693        C698   1.263       .  A
O694        V696   1.902       .  S
O694        C697   1.263       .  A
V695        V696   2.091       .  T
C697        C779   1.436       .  S
C698        C747   1.436       .  S
C699        C729   1.435       .  S
C700        C761   1.436       .  S
O701        V709   1.900       .  S
O701        C711   1.263       .  A
O702        V709   1.902       .  S
O702        C712   1.263       .  A
O703        V709   1.902       .  S
O703        C713   1.263       .  A
O704        V709   1.900       .  S
O704        C714   1.263       .  A
O705        V710   1.902       .  S
O705        C714   1.263       .  A
O706        V710   1.900       .  S
O706        C713   1.263       .  A
O707        V710   1.899       .  S
O707        C712   1.263       .  A
O708        V710   1.902       .  S
O708        C711   1.263       .  A
V709        V710   2.091       .  T
C711        C752   1.436       .  S
C712        C784   1.435       .  S
C713        C766   1.436       .  S
C714        C736   1.436       .  S
O715        V723   1.900       .  S
O715        C725   1.263       .  A
O716        V723   1.902       .  S
O716        C726   1.263       .  A
O717        V723   1.902       .  S
O717        C727   1.263       .  A
O718        V723   1.900       .  S
O718        C728   1.263       .  A
O719        V724   1.902       .  S
O719        C728   1.263       .  A
O720        V724   1.900       .  S
O720        C727   1.263       .  A
O721        V724   1.900       .  S
O721        C726   1.263       .  A
O722        V724   1.902       .  S
O722        C725   1.263       .  A
V723        V724   2.091       .  T
C725        C767   1.436       .  S
C726        C734   1.436       .  S
C727        C750   1.436       .  S
C728        C782   1.436       .  S
C729        C730   1.207       .  T
C731        C732   1.207       .  T
C733        C734   1.207       .  T
C735        C736   1.207       .  T
C737        C738   1.208       .  T
C739        C740   1.208       .  T
C741        C742   1.208       .  T
C743        C744   1.208       .  T
C745        C746   1.207       .  T
C747        C748   1.207       .  T
C749        C750   1.207       .  T
C751        C752   1.207       .  T
C753        C754   1.208       .  T
C755        C756   1.208       .  T
C757        C758   1.208       .  T
C759        C760   1.208       .  T
C761        C762   1.207       .  T
C762        C864   1.466       .  S
C763        C764   1.207       .  T
C765        C766   1.207       .  T
C767        C768   1.207       .  T
C768        C863   1.466       .  S
C769        C770   1.208       .  T
C771        C863   1.467       .  S
C771        C772   1.208       .  T
C773        C774   1.208       .  T
C775        C776   1.208       .  T
C776        C864   1.467       .  S
C777        C778   1.207       .  T
C779        C780   1.207       .  T
C781        C782   1.207       .  T
C783        C784   1.207       .  T
C785        C786   1.208       .  T
C786        C827   1.467       .  S
C787        C788   1.208       .  T
C789        C790   1.208       .  T
C791        C828   1.467       .  S
C791        C792   1.208       .  T
N793        H825   1.042       .  S
N793        C797   1.356   1_565  A
N794        C801   1.350   1_545  A
N794        C802   1.349       .  A
N795        H826   1.042       .  S
N795        C800   1.356       .  A
N796        C803   1.350       .  A
N796        C804   1.349       .  A
C797        C805   1.383       .  A
C797        C813   1.410   1_545  A
C798        C814   1.410       .  A
C798        C806   1.383       .  A
C799        C807   1.383   1_545  A
C799        C816   1.410       .  A
C800        C815   1.410       .  A
C800        C808   1.383       .  A
C801        C813   1.406       .  A
C801        C809   1.387       .  A
C802        C816   1.406       .  A
C802        C810   1.387       .  A
C803        C811   1.387       .  A
C803        C814   1.406       .  A
C804        C812   1.387       .  A
C804        C815   1.406       .  A
C805        H817   1.082       .  S
C806        H818   1.082       .  S
C807        H819   1.082       .  S
C808        H820   1.082       .  S
C809        C810   1.373   1_565  A
C809        H821   1.083       .  S
C810        H822   1.083       .  S
C811        C812   1.373       .  A
C811        H823   1.083       .  S
C812        H824   1.083       .  S
C813       C1054   1.452       .  S
C815       C1049   1.452       .  S
C827       C1047   1.466   1_554  S
C828       C1042   1.466   1_554  S
N829        H861   1.042       .  S
N829        C834   1.356       .  A
N829        C833   1.356       .  A
N830        C837   1.349       .  A
N830        C838   1.350       .  A
N831        H862   1.042       .  S
N831        C836   1.355       .  A
N831        C835   1.355       .  A
N832        C839   1.349       .  A
N832        C840   1.350       .  A
C833        C841   1.383       .  A
C833        C849   1.410       .  A
C834        C850   1.410       .  A
C834        C842   1.383       .  A
C835        C843   1.383       .  A
C835        C852   1.410       .  A
C836        C851   1.410       .  A
C836        C844   1.383       .  A
C837        C849   1.406       .  A
C837        C845   1.387       .  A
C838        C852   1.406       .  A
C838        C846   1.387       .  A
C839        C847   1.387       .  A
C839        C850   1.406       .  A
C840        C848   1.387       .  A
C840        C851   1.406       .  A
C841        C842   1.371       .  A
C841        H853   1.082       .  S
C842        H854   1.082       .  S
C843        C844   1.371       .  A
C843        H855   1.082       .  S
C844        H856   1.082       .  S
C845        C846   1.373       .  A
C845        H857   1.083       .  S
C846        H858   1.083       .  S
C847        C848   1.373       .  A
C847        H859   1.083       .  S
C848        H860   1.083       .  S
C849       C1039   1.452       .  S
C850       C1036   1.452       .  S
C851       C1033   1.452       .  S
C852       C1037   1.452       .  S
C863       C1029   1.466   1_554  S
C863       C1034   1.467   1_554  S
C864       C1028   1.466   1_554  S
C864       C1038   1.467   1_554  S
N865        H897   1.042       .  S
N865        C870   1.356       .  A
N865        C869   1.356   1_655  A
N866        C874   1.350       .  A
N867        H898   1.042       .  S
N867        C872   1.356       .  A
N867        C871   1.356   1_655  A
N868        C876   1.350       .  A
C869        C877   1.383       .  A
C869        C885   1.410       .  A
C870        C886   1.410       .  A
C870        C878   1.383       .  A
C871        C879   1.383       .  A
C871        C888   1.410       .  A
C872        C887   1.410       .  A
C872        C880   1.383       .  A
C873        C885   1.406       .  A
C873        C881   1.387       .  A
C874        C888   1.406       .  A
C874        C882   1.387       .  A
C875        C883   1.387       .  A
C875        C886   1.406       .  A
C876        C884   1.387       .  A
C876        C887   1.406       .  A
C877        C878   1.371   1_455  A
C877        H889   1.082       .  S
C878        H890   1.082       .  S
C879        C880   1.371   1_455  A
C879        H891   1.082       .  S
C880        H892   1.082       .  S
C881        H893   1.083       .  S
C882        H894   1.083       .  S
C883        H895   1.083       .  S
C884        H896   1.083       .  S
C885       C1018   1.452       .  S
C886       C1024   1.452       .  S
C887       C1021   1.452       .  S
C888       C1019   1.452       .  S
C899       C1013   1.466       .  S
C899       C1015   1.466       .  S
C899       C1017   1.467       .  S
C899       C1020   1.467       .  S
C900       C1010   1.466       .  S
C900       C1012   1.466       .  S
C900       C1022   1.467       .  S
C900       C1023   1.467       .  S
N901        H933   1.042       .  S
N901        C906   1.356   1_655  A
N901        C905   1.356       .  A
N902        C910   1.349   1_544  A
N903        H934   1.042       .  S
N903        C908   1.356   1_655  A
N903        C907   1.356   1_565  A
N904        C912   1.349   1_544  A
C905        C913   1.383   1_545  A
C905        C921   1.410       .  A
C906        C922   1.410       .  A
C906        C914   1.383   1_545  A
C907        C915   1.383       .  A
C907        C924   1.410   1_545  A
C908        C923   1.410       .  A
C908        C916   1.383   1_565  A
C909        C921   1.406       .  A
C909        C917   1.387       .  A
C910        C924   1.406       .  A
C910        C918   1.387       .  A
C911        C919   1.387       .  A
C911        C922   1.406       .  A
C912        C920   1.387       .  A
C912        C923   1.406       .  A
C913        C914   1.371   1_655  A
C913        H925   1.082       .  S
C914        H926   1.082       .  S
C915        C916   1.371   1_655  A
C915        H927   1.082       .  S
C916        H928   1.082       .  S
C917        H929   1.083       .  S
C918        H930   1.083       .  S
C919        H931   1.083       .  S
C920        H932   1.083       .  S
C923       C1003   1.452       .  S
C924       C1006   1.452       .  S
C935        C999   1.466       .  S
C935       C1002   1.467       .  S
C936        C994   1.466   1_545  S
C936       C1005   1.467   1_545  S
O937        V945   1.900       .  S
O937        C947   1.263       .  A
O938        V945   1.902       .  S
O938        C948   1.263       .  A
O939        V945   1.902       .  S
O939        C949   1.263       .  A
O940        V945   1.900       .  S
O940        C950   1.263       .  A
O941        V946   1.902       .  S
O941        C950   1.263       .  A
O942        V946   1.900       .  S
O942        C949   1.263       .  A
O943        V946   1.900       .  S
O943        C948   1.263       .  A
O944        V946   1.902       .  S
O944        C947   1.263       .  A
V945        V946   2.091       .  T
C947        C996   1.436       .  S
C948       C1027   1.436       .  S
C949       C1041   1.436       .  S
C950       C1009   1.436       .  S
O951        V959   1.900       .  S
O951        C961   1.263       .  A
O952        V959   1.902       .  S
O952        C962   1.263       .  A
O953        V959   1.902       .  S
O953        C963   1.263       .  A
O954        V959   1.899       .  S
O954        C964   1.263       .  A
O955        V960   1.902       .  S
O955        C964   1.263       .  A
O956        V960   1.900       .  S
O956        C963   1.263       .  A
O957        V960   1.900       .  S
O957        C962   1.263       .  A
O958        V960   1.902       .  S
O958        C961   1.263       .  A
V959        V960   2.091       .  T
C961       C1043   1.436       .  S
C962       C1011   1.436       .  S
C963        C993   1.435       .  S
C964       C1025   1.436       .  S
O965        V973   1.900       .  S
O965        C975   1.263       .  A
O966        V973   1.902       .  S
O966        C976   1.263       .  A
O967        V973   1.902       .  S
O967        C977   1.263       .  A
O968        V973   1.900       .  S
O968        C978   1.263       .  A
O969        V974   1.902       .  S
O969        C978   1.263       .  A
O970        V974   1.900       .  S
O970        C977   1.263       .  A
O971        V974   1.899       .  S
O971        C976   1.263       .  A
O972        V974   1.902       .  S
O972        C975   1.263       .  A
V973        V974   2.091       .  T
C975       C1016   1.436       .  S
C976       C1048   1.435       .  S
C977       C1030   1.436       .  S
C978       C1000   1.436       .  S
O979        V987   1.900       .  S
O979        C989   1.263       .  A
O980        V987   1.902       .  S
O980        C990   1.263       .  A
O981        V987   1.902       .  S
O981        C991   1.263       .  A
O982        V987   1.900       .  S
O982        C992   1.263       .  A
O983        V988   1.902       .  S
O983        C992   1.263       .  A
O984        V988   1.900       .  S
O984        C991   1.263       .  A
O985        V988   1.900       .  S
O985        C990   1.263       .  A
O986        V988   1.902       .  S
O986        C989   1.263       .  A
V987        V988   2.091       .  T
C989       C1031   1.436       .  S
C990        C998   1.436       .  S
C991       C1014   1.436       .  S
C992       C1046   1.436       .  S
C993        C994   1.207       .  T
C995        C996   1.207       .  T
C997        C998   1.207       .  T
C999       C1000   1.207       .  T
C1001      C1002   1.208       .  T
C1003      C1004   1.208       .  T
C1005      C1006   1.208       .  T
C1007      C1008   1.208       .  T
C1009      C1010   1.207       .  T
C1011      C1012   1.207       .  T
C1013      C1014   1.207       .  T
C1015      C1016   1.207       .  T
C1017      C1018   1.208       .  T
C1019      C1020   1.208       .  T
C1021      C1022   1.208       .  T
C1023      C1024   1.208       .  T
C1025      C1026   1.207       .  T
C1027      C1028   1.207       .  T
C1029      C1030   1.207       .  T
C1031      C1032   1.207       .  T
C1033      C1034   1.208       .  T
C1035      C1036   1.208       .  T
C1037      C1038   1.208       .  T
C1039      C1040   1.208       .  T
C1041      C1042   1.207       .  T
C1043      C1044   1.207       .  T
C1045      C1046   1.207       .  T
C1047      C1048   1.207       .  T
C1049      C1050   1.208       .  T
C1051      C1052   1.208       .  T
C1053      C1054   1.208       .  T
C1055      C1056   1.208       .  T
