geometry optimzed in LAMMPS
_audit_creation_date              2020-12-01 
_audit_creation_method            'lammps2cif' 
_symmetry_space_group_name_H-M    'P1' 
_symmetry_Int_Tables_number       1 
_symmetry_cell_setting            triclinic 
loop_ 
_symmetry_equiv_pos_as_xyz 
  x,y,z 
_cell_length_a                    70.88616625 
_cell_length_b                    70.9973264753998 
_cell_length_c                    46.345120834749345 
_cell_angle_alpha                 89.90659485878173 
_cell_angle_beta                  89.96733780492922 
_cell_angle_gamma                 119.44984809992778 
loop_ 
_atom_site_label 
_atom_site_type_symbol 
_atom_site_fract_x 
_atom_site_fract_y 
_atom_site_fract_z 
_atom_site_charge 
C1          C  0.49195282  0.02077957  0.78507066     0.02300
C2          C  0.49077473  0.01846262  0.81549077     0.02300
C3          C  0.50677884  0.01623604  0.83029173    -0.18200
C4          C  0.52450688  0.01717430  0.81570363     0.02300
C5          C  0.52593969  0.01956233  0.78535391     0.02300
C6          C  0.50949959  0.02114768  0.77036636    -0.18200
H7          H  0.51040072  0.02272440  0.74707937     0.04300
H8          H  0.50614842  0.01514041  0.85364866     0.04300
C9          C  0.54220137  0.05587431  0.21207578     0.02300
C10         C  0.54488483  0.06145070  0.18232492     0.02300
C11         C  0.52890585  0.06422847  0.16820922    -0.18200
C12         C  0.51012988  0.06108505  0.18254078     0.02300
C13         C  0.50761891  0.05612255  0.21239149     0.02300
C14         C  0.52372377  0.05354278  0.22669569    -0.18200
H15         H  0.52198593  0.04989733  0.24958132     0.04300
H16         H  0.53044170  0.06755743  0.14522213     0.04300
In17       In  0.36997583  0.04132245  0.99728848     1.36900
C18         C  0.39244872  0.03564567  0.95565060     0.77600
O19         O  0.36482430  0.05815813  0.95969956    -0.60800
O20         O  0.36216504  0.06843398  0.00165972    -0.51800
C21         C  0.33044281  0.01036683  0.01255176     0.70300
O22         O  0.34194818  0.00730285  0.99442411    -0.46600
C23         C  0.39668937  0.04808793  0.04180693     0.75000
O24         O  0.37430064  0.02055324  0.96407520    -0.58500
O25         O  0.39654131  0.06329505  0.02796691    -0.48600
O26         O  0.39885377  0.05340026  0.96853130    -0.54900
C27         C  0.36160066  0.07102551  0.97480885     0.85200
O28         O  0.33896168  0.02940660  0.02211324    -0.56800
O29         O  0.38279183  0.02955620  0.03339611    -0.60100
In30       In  0.66834446  0.04333398  0.99827988     1.36900
C31         C  0.64805946  0.05193204  0.04119607     0.77600
O32         O  0.65521946  0.05387446  0.96139278    -0.60800
O33         O  0.63973034  0.02048371  0.97110234    -0.51800
C34         C  0.70715109  0.07123402  0.97687115     0.70300
O35         O  0.69905770  0.07532586  0.99864383    -0.46600
C36         C  0.67800341  0.01393459  0.01856572     0.75000
O37         O  0.66019959  0.06606150  0.02324444    -0.58500
O38         O  0.66434691  0.00987334  0.99868825    -0.48600
O39         O  0.64699393  0.03387264  0.03768859    -0.54900
C40         C  0.64015220  0.03521697  0.95545220     0.85200
O41         O  0.69544244  0.05268727  0.96627717    -0.56800
O42         O  0.68692013  0.03315811  0.02773634    -0.60100
C43         C  0.84164579  0.72641856  0.85195273     0.02300
C44         C  0.83842559  0.72224566  0.88208477     0.02300
C45         C  0.85413163  0.71978909  0.89792942    -0.18200
C46         C  0.87264982  0.72110055  0.88457441     0.02300
C47         C  0.87554835  0.72512016  0.85450739     0.02300
C48         C  0.86032730  0.72820058  0.83891779    -0.18200
H49         H  0.86234261  0.73060388  0.81576697     0.04300
H50         H  0.85206235  0.71704861  0.92099546     0.04300
C51         C  0.82645720  0.69130080  0.44166606     0.02300
C52         C  0.82357904  0.68746398  0.47185282     0.02300
C53         C  0.83965454  0.68599923  0.48780339    -0.18200
C54         C  0.85873377  0.68884284  0.47486370     0.02300
C55         C  0.86180224  0.69280453  0.44483711     0.02300
C56         C  0.84558448  0.69392909  0.42862100    -0.18200
H57         H  0.84779557  0.69670243  0.40555567     0.04300
H58         H  0.83783764  0.68371926  0.51098944     0.04300
In59       In  0.70457919  0.70560510  0.65945750     1.36900
C60         C  0.72234785  0.69691372  0.61385111     0.77600
O61         O  0.68639849  0.71693308  0.63130913    -0.60800
O62         O  0.70873089  0.73908128  0.66162977    -0.51800
C63         C  0.66604611  0.67610206  0.67985064     0.70300
O64         O  0.67552063  0.67220276  0.65953132    -0.46600
C65         C  0.73335014  0.71404821  0.70212258     0.75000
O66         O  0.72171230  0.71417435  0.61671924    -0.58500
O67         O  0.73661284  0.72721885  0.68193613    -0.48600
O68         O  0.71352902  0.68367082  0.63426168    -0.54900
C69         C  0.69556507  0.73589692  0.64135978     0.85200
O70         O  0.67598115  0.69533161  0.68890342    -0.56800
O71         O  0.71547455  0.69689275  0.70046319    -0.60100
In72       In  0.99518100  0.70607283  0.66564404     1.36900
C73         C  0.97205738  0.71007558  0.70830933     0.77600
O74         O  0.98125644  0.71838731  0.63198092    -0.60800
O75         O  0.96843695  0.68454190  0.63486200    -0.51800
C76         C  0.03378280  0.73689747  0.64671955     0.70300
O77         O  0.02395119  0.71814999  0.63616386    -0.46600
C78         C  0.00541969  0.67726095  0.68659316     0.75000
O79         O  0.98911499  0.72595451  0.69845374    -0.58500
O80         O  0.00119197  0.67780619  0.66027025    -0.48600
O81         O  0.96702310  0.69222971  0.69646369    -0.54900
C82         C  0.96777734  0.70004250  0.62247900     0.85200
O83         O  0.02417207  0.73975141  0.66780643    -0.56800
O84         O  0.00507941  0.69178909  0.70180345    -0.60100
C85         C  0.15890076  0.35523636  0.11362267     0.02300
C86         C  0.15748633  0.35162143  0.14387711     0.02300
C87         C  0.17430492  0.35029811  0.15805403    -0.18200
C88         C  0.19278591  0.35320547  0.14310554     0.02300
C89         C  0.19416319  0.35663907  0.11293171     0.02300
C90         C  0.17720930  0.35761015  0.09857237    -0.18200
H91         H  0.17822432  0.36011426  0.07542225     0.04300
H92         H  0.17362089  0.34829503  0.18129145     0.04300
C93         C  0.17205473  0.38234986  0.51299840     0.02300
C94         C  0.17184991  0.38080674  0.54344068     0.02300
C95         C  0.18798493  0.37785008  0.55713145    -0.18200
C96         C  0.20408003  0.37621266  0.54111995     0.02300
C97         C  0.20410515  0.37815845  0.51065376     0.02300
C98         C  0.18831961  0.38140057  0.49717202    -0.18200
H99         H  0.18814926  0.38226338  0.47380243     0.04300
H100        H  0.18767578  0.37631051  0.58040193     0.04300
In101      In  0.03271368  0.36603513  0.32902959     1.36900
C102        C  0.05327275  0.35915114  0.28484145     0.77600
O103        O  0.01273503  0.37685930  0.30328441    -0.60800
O104        O  0.03805716  0.40018523  0.32918285    -0.51800
C105        C  0.99485294  0.33763940  0.35243971     0.70300
O106        O  0.99951848  0.33627790  0.32646583    -0.46600
C107        C  0.06049948  0.37160272  0.37140097     0.75000
O108        O  0.04060041  0.34413053  0.30140507    -0.58500
O109        O  0.05998826  0.38736290  0.35948280    -0.48600
O110        O  0.05468508  0.37711768  0.29040991    -0.54900
C111        C  0.02307519  0.39632625  0.31139102     0.85200
O112        O  0.00921444  0.35374614  0.36586374    -0.56800
O113        O  0.04693080  0.35337956  0.36159048    -0.60100
In114      In  0.33168774  0.36822834  0.32704471     1.36900
C115        C  0.30707557  0.36996630  0.36922091     0.77600
O116        O  0.31860945  0.38240214  0.29462042    -0.60800
O117        O  0.30825749  0.34895530  0.29154762    -0.51800
C118        C  0.37013840  0.39817149  0.30738359     0.70300
O119        O  0.35938195  0.40234649  0.32550934    -0.46600
C120        C  0.34070756  0.33900363  0.34944306     0.75000
O121        O  0.32599763  0.38530226  0.36454575    -0.58500
O122        O  0.32821570  0.33509566  0.32816071    -0.48600
O123        O  0.30125704  0.35402850  0.35271977    -0.54900
C124        C  0.30674596  0.36479512  0.28190495     0.85200
O125        O  0.36130970  0.37857710  0.29979763    -0.56800
O126        O  0.34909151  0.35812757  0.35877471    -0.60100
C127        C  0.84699556  0.17870600  0.84969699     0.02300
C128        C  0.84563450  0.17985036  0.88011430     0.02300
C129        C  0.86233840  0.19751874  0.89481237    -0.18200
C130        C  0.87978645  0.21445946  0.88004506     0.02300
C131        C  0.88108901  0.21315438  0.84968337     0.02300
C132        C  0.86497798  0.19505556  0.83509209    -0.18200
H133        H  0.86576682  0.19433561  0.81178067     0.04300
H134        H  0.86157815  0.19829917  0.91810511     0.04300
C135        C  0.85907081  0.23007998  0.45694653     0.02300
C136        C  0.85600488  0.23048864  0.48721848     0.02300
C137        C  0.83727248  0.21386495  0.50014475    -0.18200
C138        C  0.82177176  0.19636640  0.48419228     0.02300
C139        C  0.82454323  0.19584984  0.45400580     0.02300
C140        C  0.84300447  0.21280670  0.44087180    -0.18200
H141        H  0.84516574  0.21217822  0.41781823     0.04300
H142        H  0.83527428  0.21400591  0.52334730     0.04300
In143      In  0.70356841  0.05724087  0.66939254     1.36900
C144        C  0.72257867  0.08355516  0.62441485     0.77600
O145        O  0.71604201  0.08057075  0.70679359    -0.60800
O146        O  0.73346311  0.06466150  0.69557273    -0.51800
C147        C  0.66458281  0.04668595  0.69006937     0.70300
O148        O  0.67338035  0.06020262  0.66984691    -0.46600
C149        C  0.69398548  0.01838522  0.64938969     0.75000
O150        O  0.70935077  0.08551066  0.64061976    -0.58500
O151        O  0.70605935  0.02691126  0.67102295    -0.48600
O152        O  0.72575914  0.06819208  0.63119157    -0.54900
C153        C  0.73207755  0.07805084  0.71199847     0.85200
O154        O  0.67574807  0.03859935  0.69946514    -0.56800
O155        O  0.68634626  0.02954224  0.63854406    -0.60100
In156      In  0.99980442  0.35455548  0.66561085     1.36900
C157        C  0.97205760  0.33189590  0.62358292     0.77600
O158        O  0.02675778  0.37155488  0.63313994    -0.60800
O159        O  0.02978123  0.35130141  0.66425337    -0.51800
C160        C  0.00894998  0.39276897  0.68757434     0.70300
O161        O  0.99377154  0.38264929  0.66978470    -0.46600
C162        C  0.97938441  0.32823483  0.71012876     0.75000
O163        O  0.97760140  0.35143783  0.62835132    -0.58500
O164        O  0.99582276  0.32925659  0.69806393    -0.48600
O165        O  0.98124544  0.32452115  0.63956394    -0.54900
C166        C  0.03807086  0.36375149  0.64289756     0.85200
O167        O  0.01942820  0.38325523  0.69411728    -0.56800
O168        O  0.97380566  0.34127916  0.70007949    -0.60100
C169        C  0.50535793  0.51440419  0.21224514     0.02300
C170        C  0.50769936  0.51285529  0.18217905     0.02300
C171        C  0.52584486  0.52906612  0.16783881    -0.18200
C172        C  0.54130305  0.54744335  0.18247215     0.02300
C173        C  0.53896123  0.54928340  0.21255453     0.02300
C174        C  0.52105763  0.53261264  0.22707640    -0.18200
H175        H  0.51941635  0.53371544  0.25017016     0.04300
H176        H  0.52720619  0.52805983  0.14465232     0.04300
C177        C  0.53028405  0.56330011  0.77879524     0.02300
C178        C  0.52856198  0.56446736  0.80914238     0.02300
C179        C  0.51063535  0.54818491  0.82372305    -0.18200
C180        C  0.49469529  0.53017951  0.80915369     0.02300
C181        C  0.49630348  0.52866012  0.77898230     0.02300
C182        C  0.51388218  0.54535725  0.76411780    -0.18200
H183        H  0.51482071  0.54424561  0.74089535     0.04300
H184        H  0.50968746  0.54895052  0.84702347     0.04300
In185      In  0.66051057  0.68763166  0.99702825     1.36900
C186        C  0.63517426  0.66615921  0.95270018     0.77600
O187        O  0.68797255  0.70603314  0.96583448    -0.60800
O188        O  0.69084697  0.68508619  0.99606852    -0.51800
C189        C  0.66932707  0.72557732  0.01969679     0.70300
O190        O  0.65593637  0.71693924  0.99934976    -0.46600
C191        C  0.63948769  0.66007107  0.04020928     0.75000
O192        O  0.63449915  0.68188077  0.96431040    -0.58500
O193        O  0.65638835  0.66169711  0.02885348    -0.48600
O194        O  0.64879150  0.66178291  0.96361725    -0.54900
C195        C  0.69921974  0.69796040  0.97509261     0.85200
O196        O  0.67823489  0.71488364  0.02795265    -0.56800
O197        O  0.63353435  0.67263610  0.02961702    -0.60100
In198      In  0.37103911  0.39499932  0.99455360     1.36900
C199        C  0.39730919  0.41595638  0.03849905     0.77600
O200        O  0.39624803  0.40683463  0.96016315    -0.60800
O201        O  0.37686639  0.42182199  0.96311199    -0.51800
C202        C  0.36143467  0.35643640  0.97439363     0.70300
O203        O  0.37433992  0.36518329  0.99519834    -0.46600
C204        C  0.33199068  0.38436025  0.01460325     0.75000
O205        O  0.39865218  0.40145302  0.02454732    -0.58500
O206        O  0.34118295  0.39842853  0.99506830    -0.48600
O207        O  0.38237756  0.41939394  0.03021637    -0.54900
C208        C  0.39215356  0.42095136  0.95040366     0.85200
O209        O  0.35338422  0.36742648  0.96419388    -0.56800
O210        O  0.34274483  0.37566751  0.02349479    -0.60100
C211        C  0.70171679  0.89965776  0.14826549     0.02300
C212        C  0.69777266  0.89842327  0.11822724     0.02300
C213        C  0.69600093  0.88053980  0.10282354    -0.18200
C214        C  0.69808954  0.86399295  0.11677048     0.02300
C215        C  0.70211949  0.86550668  0.14686005     0.02300
C216        C  0.70420316  0.88345915  0.16204946    -0.18200
H217        H  0.70664358  0.88426521  0.18521350     0.04300
H218        H  0.69323560  0.87962495  0.07975102     0.04300
C219        C  0.67502503  0.85133297  0.54328703     0.02300
C220        C  0.67145469  0.84993860  0.51311243     0.02300
C221        C  0.67026139  0.86674069  0.49879831    -0.18200
C222        C  0.67300106  0.88516764  0.51357837     0.02300
C223        C  0.67583867  0.88639388  0.54391857     0.02300
C224        C  0.67677919  0.86936721  0.55827926    -0.18200
H225        H  0.67882568  0.87009059  0.58149825     0.04300
H226        H  0.66827687  0.86596860  0.47554498     0.04300
In227      In  0.68115737  0.72305852  0.32918996     1.36900
C228        C  0.67461294  0.74319961  0.37397754     0.77600
O229        O  0.69221887  0.70316830  0.35458211    -0.60800
O230        O  0.71504501  0.72823291  0.32759777    -0.51800
C231        C  0.65109288  0.68441119  0.31047980     0.70300
O232        O  0.64831369  0.69331933  0.33239034    -0.46600
C233        C  0.68863707  0.75092536  0.28571256     0.75000
O234        O  0.66021499  0.73266248  0.35554905    -0.58500
O235        O  0.70356519  0.75152281  0.30107021    -0.48600
O236        O  0.69190780  0.74272842  0.37001621    -0.54900
C237        C  0.71152537  0.71346255  0.34556785     0.85200
O238        O  0.66939359  0.69514266  0.29858347    -0.56800
O239        O  0.67007282  0.73591058  0.29230889    -0.60100
In240      In  0.68647017  0.02429382  0.32967576     1.36900
C241        C  0.69195525  0.00334511  0.28566347     0.77600
O242        O  0.70156503  0.01249111  0.36267602    -0.60800
O243        O  0.66744487  0.99795528  0.36225775    -0.51800
C244        C  0.71489207  0.06296031  0.34952324     0.70300
O245        O  0.71918482  0.05379414  0.32927201    -0.46600
C246        C  0.65588236  0.03238850  0.31002029     0.75000
O247        O  0.70732602  0.02038510  0.29600446    -0.58500
O248        O  0.65268353  0.01946118  0.33058629    -0.48600
O249        O  0.67389238  0.99750049  0.29734687    -0.54900
C250        C  0.68388860  0.99837112  0.37330858     0.85200
O251        O  0.69573036  0.05255598  0.35901416    -0.56800
O252        O  0.67490030  0.04150669  0.29995772    -0.60100
C253        C  0.02747246  0.56235951  0.78371575     0.02300
C254        C  0.02915160  0.56278519  0.81430309     0.02300
C255        C  0.03148700  0.54659688  0.82853742    -0.18200
C256        C  0.03136902  0.52948542  0.81352104     0.02300
C257        C  0.02990741  0.52893793  0.78309949     0.02300
C258        C  0.02822232  0.54550701  0.76854514    -0.18200
H259        H  0.02672444  0.54482411  0.74525624     0.04300
H260        H  0.03227461  0.54670977  0.85191298     0.04300
In261      In  0.01606200  0.68724642  0.00037709     1.36900
C262        C  0.01791293  0.66386504  0.95622924     0.77600
O263        O  0.03147677  0.67234963  0.02773327    -0.60800
O264        O  0.99878016  0.66371558  0.03661727    -0.51800
C265        C  0.04709735  0.72427319  0.02202052     0.70300
O266        O  0.04647999  0.71964461  0.99559757    -0.46600
C267        C  0.98551949  0.69728166  0.98484630     0.75000
O268        O  0.03368560  0.68210110  0.96264698    -0.58500
O269        O  0.98203710  0.68252910  0.00278923    -0.48600
O270        O  0.00142035  0.65824272  0.97171909    -0.54900
C271        C  0.01483728  0.66133162  0.04300680     0.85200
O272        O  0.03152901  0.71039948  0.03687250    -0.56800
O273        O  0.00473033  0.70727038  0.97570328    -0.60100
C274        C  0.00705205  0.51552842  0.21555348     0.02300
C275        C  0.00441652  0.51448737  0.18515121     0.02300
C276        C  0.00437835  0.53173652  0.17034573    -0.18200
C277        C  0.00730508  0.55027754  0.18481520     0.02300
C278        C  0.00984659  0.55149598  0.21510352     0.02300
C279        C  0.00983018  0.53418845  0.23012635    -0.18200
H280        H  0.01154443  0.53508043  0.25338976     0.04300
H281        H  0.00282257  0.53105572  0.14704235     0.04300
In282      In  0.01642237  0.39052934  0.99844688     1.36900
C283        C  0.01039306  0.41173251  0.04196657     0.77600
O284        O  0.02637130  0.37228030  0.02863982    -0.60800
O285        O  0.04945305  0.39327521  0.99793707    -0.51800
C286        C  0.98807940  0.35166003  0.97862235     0.70300
O287        O  0.98426931  0.36002367  0.00033833    -0.46600
C288        C  0.02115938  0.41713250  0.95456907     0.75000
O289        O  0.99491003  0.39747848  0.02750475    -0.58500
O290        O  0.03710413  0.41827363  0.96816607    -0.48600
O291        O  0.02873229  0.41475772  0.03446178    -0.54900
C292        C  0.04533542  0.38019162  0.01864329     0.85200
O293        O  0.00654525  0.36311243  0.96743628    -0.56800
O294        O  0.00309352  0.40222104  0.96308211    -0.60100
C295        C  0.19874946  0.89588327  0.14282169     0.02300
C296        C  0.19873639  0.89391355  0.11240362     0.02300
C297        C  0.18218121  0.87515333  0.09920819    -0.18200
C298        C  0.16604117  0.85805121  0.11558976     0.02300
C299        C  0.16646075  0.86012507  0.14608074     0.02300
C300        C  0.18256944  0.87903307  0.15906443    -0.18200
H301        H  0.18287706  0.88037766  0.18239728     0.04300
H302        H  0.18226007  0.87360686  0.07595680     0.04300
C303        C  0.17056484  0.85096907  0.55097406     0.02300
C304        C  0.17353318  0.84849389  0.52125223     0.02300
C305        C  0.19222777  0.86408623  0.50715736    -0.18200
C306        C  0.20775837  0.88268897  0.52137270     0.02300
C307        C  0.20484607  0.88548050  0.55100103     0.02300
C308        C  0.18639040  0.86945685  0.56543755    -0.18200
H309        H  0.18444024  0.87133550  0.58826005     0.04300
H310        H  0.19408326  0.86233384  0.48425063     0.04300
In311      In  0.03980488  0.72595834  0.33288340     1.36900
C312        C  0.06490364  0.74767862  0.37747078     0.77600
O313        O  0.07062629  0.74271859  0.30798490    -0.60800
O314        O  0.04458156  0.74657483  0.29289347    -0.51800
C315        C  0.03048221  0.68703485  0.31280092     0.70300
O316        O  0.04371926  0.69625277  0.33309858    -0.46600
C317        C  0.00166744  0.71836929  0.35368689     0.75000
O318        O  0.06349903  0.73036105  0.36804875    -0.58500
O319        O  0.01172155  0.73255787  0.33454553    -0.48600
O320        O  0.05291049  0.75348963  0.36465870    -0.54900
C321        C  0.06408525  0.75120046  0.28956501     0.85200
O322        O  0.02169365  0.69751885  0.30330988    -0.56800
O323        O  0.01116593  0.70820495  0.36185195    -0.60100
In324      In  0.33013848  0.01750141  0.33195018     1.36900
C325        C  0.30832474  0.98963798  0.37479798     0.77600
O326        O  0.34757849  0.04460163  0.36342976    -0.60800
O327        O  0.32603759  0.04704059  0.33379634    -0.51800
C328        C  0.36969601  0.02862580  0.31192221     0.70300
O329        O  0.36077491  0.01503004  0.33204139    -0.46600
C330        C  0.30478858  0.99801237  0.28631958     0.75000
O331        O  0.32332153  0.98896414  0.36101093    -0.58500
O332        O  0.30404329  0.01305388  0.29976253    -0.48600
O333        O  0.30475150  0.00451552  0.36676129    -0.54900
C334        C  0.33901221  0.05550372  0.35461392     0.85200
O335        O  0.35850094  0.03668915  0.30253399    -0.56800
O336        O  0.31831131  0.99310572  0.29626169    -0.60100
C337        C  0.33590999  0.18549443  0.84814743     0.02300
C338        C  0.33867795  0.18555818  0.87852661     0.02300
C339        C  0.33826862  0.20208013  0.89491369    -0.18200
C340        C  0.33537665  0.21838482  0.88189145     0.02300
C341        C  0.33247580  0.21799467  0.85166714     0.02300
C342        C  0.33254464  0.20147645  0.83539766    -0.18200
H343        H  0.33080905  0.20154570  0.81214940     0.04300
H344        H  0.34071451  0.20258496  0.91803068     0.04300
C345        C  0.36818696  0.22921741  0.48247727     0.02300
C346        C  0.36420133  0.22722270  0.45240201     0.02300
C347        C  0.36262013  0.20912602  0.43782913    -0.18200
C348        C  0.36435627  0.19273445  0.45259738     0.02300
C349        C  0.36810994  0.19475719  0.48277732     0.02300
C350        C  0.37057483  0.21321721  0.49709162    -0.18200
H351        H  0.37279446  0.21437457  0.52029593     0.04300
H352        H  0.35998097  0.20778868  0.41471996     0.04300
In353      In  0.35012114  0.05707679  0.66950205     1.36900
C354        C  0.34743085  0.08224965  0.71032740     0.77600
O355        O  0.36135525  0.04157393  0.70246473    -0.60800
O356        O  0.38249749  0.05816623  0.66767627    -0.51800
C357        C  0.31822620  0.01908380  0.65148993     0.70300
O358        O  0.31484043  0.03163531  0.66723857    -0.46600
C359        C  0.35547167  0.08117396  0.62271605     0.75000
O360        O  0.33408866  0.06226906  0.70898963    -0.58500
O361        O  0.37119736  0.08196735  0.63646668    -0.48600
O362        O  0.36187201  0.08888106  0.69120572    -0.54900
C363        C  0.37945078  0.04749164  0.69064809     0.85200
O364        O  0.33792407  0.02590175  0.64552796    -0.56800
O365        O  0.33712737  0.06743887  0.63222460    -0.60100
In366      In  0.35344282  0.35541030  0.66334744     1.36900
C367        C  0.35874482  0.33142515  0.62361053     0.77600
O368        O  0.36438005  0.34489406  0.70294309    -0.60800
O369        O  0.33099954  0.32855293  0.69317741    -0.51800
C370        C  0.38397602  0.39471944  0.67908114     0.70300
O371        O  0.38801046  0.38236639  0.66388901    -0.46600
C372        C  0.32416836  0.36315282  0.63819194     0.75000
O373        O  0.37411936  0.34966204  0.63105338    -0.58500
O374        O  0.32446521  0.36052571  0.66510151    -0.48600
O375        O  0.34118223  0.32568212  0.63673293    -0.54900
C376        C  0.34578870  0.32991746  0.70953435     0.85200
O377        O  0.36420432  0.38724488  0.68506884    -0.56800
O378        O  0.33939649  0.36285147  0.62452041    -0.60100
C379        C  0.36730816  0.24620786  0.50002844    -0.01300
C380        C  0.34802823  0.24700476  0.50187433    -0.09300
C381        C  0.34623615  0.26138121  0.52068177    -0.18100
C382        C  0.36382265  0.27548210  0.53837369     0.04300
C383        C  0.38366896  0.27523978  0.53541431     0.18500
C384        C  0.38514123  0.26048683  0.51662280    -0.19500
C385        C  0.40181863  0.28951474  0.55150949    -0.20800
C386        C  0.40067865  0.30398186  0.57070337    -0.19300
C387        C  0.38119494  0.30414157  0.57485868     0.19900
C388        C  0.36239910  0.28967494  0.55900566     0.02000
C389        C  0.34283364  0.28961597  0.56508062    -0.14100
C390        C  0.34197871  0.30327391  0.58595123    -0.11800
C391        C  0.36056098  0.31775196  0.60109396     0.01500
C392        C  0.38023359  0.31834695  0.59524698    -0.24000
H393        H  0.33408472  0.23602914  0.48919856     0.09500
H394        H  0.33086699  0.26101973  0.52088345     0.13100
H395        H  0.40011834  0.25991237  0.51505063     0.11800
H396        H  0.41703256  0.28950067  0.54922391     0.13000
H397        H  0.41503451  0.31483939  0.58278751     0.12000
H398        H  0.32776810  0.27884796  0.55460329     0.09100
H399        H  0.32659806  0.30254054  0.59022416     0.12400
H400        H  0.39459541  0.32932820  0.60725547     0.14200
C401        C  0.35812263  0.09583589  0.59849143    -0.01300
C402        C  0.34048492  0.09146070  0.58073222    -0.09300
C403        C  0.34195758  0.10636755  0.55993806    -0.18100
C404        C  0.36113608  0.12649331  0.55662214     0.04300
C405        C  0.37915307  0.13066712  0.57435449     0.18500
C406        C  0.37761419  0.11522010  0.59465416    -0.19500
C407        C  0.39833159  0.15054107  0.57246841    -0.20800
C408        C  0.39983414  0.16665357  0.55392985    -0.19300
C409        C  0.38232247  0.16316113  0.53643158     0.19900
C410        C  0.36286161  0.14286412  0.53705790     0.02000
C411        C  0.34584349  0.14000369  0.51843597    -0.14100
C412        C  0.34785891  0.15674341  0.50062196    -0.11800
C413        C  0.36683878  0.17680122  0.50059367     0.01500
C414        C  0.38405133  0.17994174  0.51850076    -0.24000
H415        H  0.32527399  0.07655839  0.58329627     0.09500
H416        H  0.32756521  0.10188661  0.54743953     0.13100
H417        H  0.39129180  0.11877966  0.60850768     0.11800
H418        H  0.41212445  0.15383352  0.58591276     0.13000
H419        H  0.41475610  0.18201473  0.55342081     0.12000
H420        H  0.33071249  0.12507861  0.51718668     0.09100
H421        H  0.33434592  0.15412817  0.48705140     0.12400
H422        H  0.39877615  0.19550258  0.51844476     0.14200
C423        C  0.33162328  0.23560580  0.83555491    -0.01300
C424        C  0.31423261  0.23079965  0.81710449    -0.09300
C425        C  0.31477530  0.24645111  0.79833589    -0.18100
C426        C  0.33307984  0.26741730  0.79706752     0.04300
C427        C  0.35045338  0.27230796  0.81644425     0.18500
C428        C  0.34942474  0.25654281  0.83571944    -0.19500
C429        C  0.36922426  0.29255115  0.81549481    -0.20800
C430        C  0.37157141  0.30775571  0.79480300    -0.19300
C431        C  0.35497894  0.30331477  0.77504316     0.19900
C432        C  0.33520239  0.28335864  0.77646118     0.02000
C433        C  0.31862530  0.28010260  0.75677184    -0.14100
C434        C  0.32192954  0.29557041  0.73578868    -0.11800
C435        C  0.34181146  0.31469878  0.73358353     0.01500
C436        C  0.35817863  0.31860264  0.75354230    -0.24000
H437        H  0.30041635  0.21461178  0.81664395     0.09500
H438        H  0.30099997  0.24135251  0.78431919     0.13100
H439        H  0.36304480  0.26015467  0.84969976     0.11800
H440        H  0.38247284  0.29639520  0.83025696     0.13000
H441        H  0.38658585  0.32303790  0.79406883     0.12000
H442        H  0.30294599  0.26574009  0.75692351     0.09100
H443        H  0.30899545  0.29226571  0.72071404     0.12400
H444        H  0.37356044  0.33349045  0.75214655     0.14200
C445        C  0.33782143  0.17014863  0.82837064    -0.01300
C446        C  0.35424180  0.17825512  0.80753938    -0.09300
C447        C  0.35669841  0.16441974  0.78859793    -0.18100
C448        C  0.34258684  0.14181813  0.78973488     0.04300
C449        C  0.32563100  0.13369015  0.81057462     0.18500
C450        C  0.32346695  0.14786238  0.82976710    -0.19500
C451        C  0.31084029  0.11150839  0.81189915    -0.20800
C452        C  0.31233302  0.09721403  0.79271989    -0.19300
C453        C  0.32889502  0.10467974  0.77205536     0.19900
C454        C  0.34448528  0.12706926  0.77062680     0.02000
C455        C  0.36131939  0.13373765  0.75009310    -0.14100
C456        C  0.36219658  0.11900243  0.73114536    -0.11800
C457        C  0.34644913  0.09709079  0.73188470     0.01500
C458        C  0.32993549  0.08993996  0.75265637    -0.24000
H459        H  0.36539924  0.19548766  0.80611350     0.09500
H460        H  0.36966736  0.17200927  0.77312927     0.13100
H461        H  0.31058821  0.14163579  0.84570574     0.11800
H462        H  0.29786285  0.10519262  0.82767851     0.13000
H463        H  0.30044684  0.08017554  0.79408422     0.12000
H464        H  0.37415053  0.15024503  0.74808268     0.09100
H465        H  0.37528382  0.12492298  0.71555985     0.12400
H466        H  0.31778484  0.07295549  0.75355854     0.14200
C467        C  0.36219077  0.17370986  0.43618149    -0.01300
C468        C  0.37726448  0.16658343  0.44002817    -0.09300
C469        C  0.37458295  0.14790434  0.42641698    -0.18100
C470        C  0.35675050  0.13576956  0.40801048     0.04300
C471        C  0.34226561  0.14383202  0.40263139     0.18500
C472        C  0.34497356  0.16250333  0.41688016    -0.19500
C473        C  0.32507447  0.13308913  0.38326725    -0.20800
C474        C  0.32181603  0.11435735  0.36933245    -0.19300
C475        C  0.33529290  0.10553502  0.37501623     0.19900
C476        C  0.35280688  0.11598520  0.39472202     0.02000
C477        C  0.36526426  0.10586553  0.40085384    -0.14100
C478        C  0.36068452  0.08637651  0.38776228    -0.11800
C479        C  0.34374425  0.07636038  0.36788982     0.01500
C480        C  0.33114415  0.08610006  0.36150267    -0.24000
H481        H  0.39115648  0.17544067  0.45391743     0.09500
H482        H  0.38686973  0.14349983  0.43055118     0.13100
H483        H  0.33338678  0.16807369  0.41341817     0.11800
H484        H  0.31407830  0.13923712  0.37882765     0.13000
H485        H  0.30839768  0.10648405  0.35440997     0.12000
H486        H  0.37837614  0.11234716  0.41616574     0.09100
H487        H  0.37052062  0.07909209  0.39327732     0.12400
H488        H  0.31778957  0.07830721  0.34645250     0.14200
C489        C  0.30065692  0.99839054  0.64010032    -0.01300
C490        C  0.27886540  0.99286764  0.64307877    -0.09300
C491        C  0.26244636  0.97411981  0.63021151    -0.18100
C492        C  0.26739620  0.96027554  0.61381600     0.04300
C493        C  0.28951112  0.96565988  0.61179181     0.18500
C494        C  0.30577062  0.98447419  0.62486979    -0.19500
C495        C  0.29540427  0.95249046  0.59620586    -0.20800
C496        C  0.27986567  0.93426818  0.58192917    -0.19300
C497        C  0.25802685  0.92874687  0.58284284     0.19900
C498        C  0.25137190  0.94152018  0.59898120     0.02000
C499        C  0.22903917  0.93508434  0.59914461    -0.14100
C500        C  0.21410601  0.91694598  0.58366677    -0.11800
C501        C  0.22085903  0.90467288  0.56749499     0.01500
C502        C  0.24282252  0.91055062  0.56746618    -0.24000
H503        H  0.27450254  0.00332941  0.65488142     0.09500
H504        H  0.24610794  0.97107264  0.63315754     0.13100
H505        H  0.32258050  0.98851827  0.62267033     0.11800
H506        H  0.31222505  0.95646336  0.59474456     0.13000
H507        H  0.28501507  0.92454735  0.56978759     0.12000
H508        H  0.22262962  0.94380131  0.61082463     0.09100
H509        H  0.19716536  0.91261593  0.58402749     0.12400
H510        H  0.24807431  0.90086181  0.55542334     0.14200
C511        C  0.15661264  0.83118475  0.50325260    -0.01300
C512        C  0.16128487  0.81706994  0.48777605    -0.09300
C513        C  0.14618537  0.80208636  0.46859420    -0.18100
C514        C  0.12600645  0.80112819  0.46380017     0.04300
C515        C  0.12146652  0.81563574  0.47954059     0.18500
C516        C  0.13654607  0.83015065  0.49942048    -0.19500
C517        C  0.10225563  0.81614722  0.47456661    -0.20800
C518        C  0.08770404  0.80302600  0.45361186    -0.19300
C519        C  0.09162702  0.78852122  0.43778623     0.19900
C520        C  0.11051083  0.78687301  0.44326534     0.02000
C521        C  0.11306163  0.77109078  0.42783065    -0.14100
C522        C  0.09790253  0.75806132  0.40718237    -0.11800
C523        C  0.07990220  0.76048395  0.40089271     0.01500
C524        C  0.07679521  0.77568188  0.41639631    -0.24000
H525        H  0.17685605  0.81786750  0.49030287     0.09500
H526        H  0.15109131  0.79201465  0.45711563     0.13100
H527        H  0.13311043  0.84137865  0.51102270     0.11800
H528        H  0.09872672  0.82719308  0.48643725     0.13000
H529        H  0.07324054  0.80421594  0.44978049     0.12000
H530        H  0.12652150  0.76831217  0.43136341     0.09100
H531        H  0.10056770  0.74634389  0.39556730     0.12400
H532        H  0.06272952  0.77744973  0.41188901     0.14200
C533        C  0.29569801  0.97431185  0.39819225    -0.01300
C534        C  0.29591268  0.95484282  0.40190311    -0.09300
C535        C  0.28302438  0.93992678  0.42308150    -0.18100
C536        C  0.26955187  0.94414993  0.44147413     0.04300
C537        C  0.26985206  0.96419620  0.43798252     0.18500
C538        C  0.28274646  0.97891827  0.41650256    -0.19500
C539        C  0.25705225  0.96937533  0.45568224    -0.20800
C540        C  0.24353865  0.95487245  0.47646684    -0.19300
C541        C  0.24242254  0.93478594  0.48007631     0.19900
C542        C  0.25555412  0.92916297  0.46284696     0.02000
C543        C  0.25368257  0.90859568  0.46736726    -0.14100
C544        C  0.23883933  0.89401163  0.48726407    -0.11800
C545        C  0.22560578  0.89945878  0.50360478     0.01500
C546        C  0.22775257  0.92002572  0.50027382    -0.24000
H547        H  0.30578051  0.95092319  0.38799428     0.09500
H548        H  0.28385632  0.92520912  0.42437469     0.13100
H549        H  0.28259296  0.99401924  0.41392230     0.11800
H550        H  0.25731351  0.98467904  0.45321924     0.13000
H551        H  0.23363681  0.95929108  0.48955627     0.12000
H552        H  0.26309410  0.90310352  0.45542282     0.09100
H553        H  0.23732094  0.87812804  0.48949785     0.12400
H554        H  0.21728630  0.92417665  0.51256575     0.14200
C555        C  0.21607366  0.91440584  0.15891444    -0.01300
C556        C  0.23756715  0.91878983  0.15746148    -0.09300
C557        C  0.25338586  0.93439584  0.17534387    -0.18100
C558        C  0.24807492  0.94597595  0.19563015     0.04300
C559        C  0.22643033  0.94219186  0.19592671     0.18500
C560        C  0.21070690  0.92646019  0.17778815    -0.19500
C561        C  0.22043698  0.95364269  0.21495625    -0.20800
C562        C  0.23528080  0.96821876  0.23455535    -0.19300
C563        C  0.25638466  0.97142317  0.23599063     0.19900
C564        C  0.26317783  0.96053719  0.21630730     0.02000
C565        C  0.28447361  0.96390657  0.21912861    -0.14100
C566        C  0.29794433  0.97649911  0.24145531    -0.11800
C567        C  0.29099602  0.98668593  0.26123046     0.01500
C568        C  0.27045694  0.98470659  0.25781811    -0.24000
H569        H  0.24200274  0.90960272  0.14304851     0.09500
H570        H  0.26951851  0.93670629  0.17313435     0.13100
H571        H  0.19406494  0.92313872  0.17882746     0.11800
H572        H  0.20402682  0.95100679  0.21505241     0.13000
H573        H  0.22999263  0.97651223  0.24934830     0.12000
H574        H  0.29097060  0.95641755  0.20507833     0.09100
H575        H  0.31386722  0.97803983  0.24351148     0.12400
H576        H  0.26497747  0.99253483  0.27313009     0.14200
C577        C  0.15107678  0.84272579  0.16554369    -0.01300
C578        C  0.15904051  0.83342712  0.18527122    -0.09300
C579        C  0.14521503  0.81763702  0.20468337    -0.18100
C580        C  0.12280811  0.81082311  0.20532009     0.04300
C581        C  0.11481389  0.82044245  0.18532275     0.18500
C582        C  0.12891753  0.83606512  0.16543638    -0.19500
C583        C  0.09289075  0.81473098  0.18572301    -0.20800
C584        C  0.07876919  0.79994857  0.20589559    -0.19300
C585        C  0.08611232  0.79019105  0.22587540     0.19900
C586        C  0.10817623  0.79520876  0.22550941     0.02000
C587        C  0.11467446  0.78448007  0.24553125    -0.14100
C588        C  0.10013056  0.77002633  0.26564731    -0.11800
C589        C  0.07859855  0.76564950  0.26666600     0.01500
C590        C  0.07158245  0.77558298  0.24643517    -0.24000
H591        H  0.17616561  0.83846824  0.18562360     0.09500
H592        H  0.15268952  0.81143952  0.21924464     0.13100
H593        H  0.12280422  0.84344300  0.15032320     0.11800
H594        H  0.08668055  0.82200781  0.17060832     0.13000
H595        H  0.06197794  0.79615655  0.20590415     0.12000
H596        H  0.13088653  0.78687395  0.24629147     0.09100
H597        H  0.10594030  0.76240691  0.28080663     0.12400
H598        H  0.05490011  0.77215334  0.24689648     0.14200
C599        C  0.01165903  0.57034513  0.23130586    -0.01300
C600        C  0.99473712  0.57514259  0.23045171    -0.09300
C601        C  0.99659114  0.59342804  0.24434688    -0.18100
C602        C  0.01564028  0.60767571  0.25955322     0.04300
C603        C  0.03259130  0.60242101  0.26084710     0.18500
C604        C  0.03044204  0.58388364  0.24682643    -0.19500
C605        C  0.05164389  0.61577297  0.27597685    -0.20800
C606        C  0.05423870  0.63419797  0.29003286    -0.19300
C607        C  0.03801130  0.63999029  0.28891072     0.19900
C608        C  0.01854570  0.62695131  0.27340390     0.02000
C609        C  0.00306938  0.63404633  0.27199864    -0.14100
C610        C  0.00691403  0.65334431  0.28509738    -0.11800
C611        C  0.02602358  0.66600217  0.30051354     0.01500
C612        C  0.04136399  0.65904737  0.30270620    -0.24000
H613        H  0.98000309  0.56468582  0.21879195     0.09500
H614        H  0.98282695  0.59594491  0.24278074     0.13100
H615        H  0.04355867  0.58016644  0.24749413     0.11800
H616        H  0.06463830  0.61190582  0.27701631     0.13000
H617        H  0.06918386  0.64414359  0.30160202     0.12000
H618        H  0.98803108  0.62530089  0.26042978     0.09100
H619        H  0.99485772  0.65843609  0.28307692     0.12400
H620        H  0.05632801  0.66891876  0.31430379     0.14200
C621        C  0.00312215  0.49644463  0.16760143    -0.01300
C622        C  0.98508349  0.48439880  0.15005927    -0.09300
C623        C  0.98459667  0.46894363  0.13102005    -0.18100
C624        C  0.00248371  0.46536545  0.12850153     0.04300
C625        C  0.02054149  0.47730104  0.14699201     0.18500
C626        C  0.02063223  0.49254221  0.16641046    -0.19500
C627        C  0.03868773  0.47444942  0.14537874    -0.20800
C628        C  0.03962441  0.46048576  0.12517287    -0.19300
C629        C  0.02241431  0.44896362  0.10612652     0.19900
C630        C  0.00340752  0.45090526  0.10778790     0.02000
C631        C  0.98642669  0.43866626  0.08816011    -0.14100
C632        C  0.98850744  0.42554440  0.06737198    -0.11800
C633        C  0.00754024  0.42426869  0.06532687     0.01500
C634        C  0.02431716  0.43582510  0.08499887    -0.24000
H635        H  0.97141071  0.48723963  0.15081146     0.09500
H636        H  0.97019226  0.46044606  0.11810526     0.13100
H637        H  0.03469152  0.50201971  0.17984265     0.11800
H638        H  0.05243922  0.48339724  0.15948443     0.13000
H639        H  0.05408164  0.45893958  0.12414392     0.12000
H640        H  0.97142359  0.43905799  0.08807252     0.09100
H641        H  0.97534941  0.41676561  0.05235128     0.12400
H642        H  0.03905241  0.43477983  0.08365811     0.14200
C643        C  0.14969928  0.83798212  0.10054497    -0.01300
C644        C  0.14527714  0.81754418  0.11045431    -0.09300
C645        C  0.12898291  0.79867752  0.09796666    -0.18100
C646        C  0.11697913  0.79954043  0.07417712     0.04300
C647        C  0.12284953  0.82018390  0.06234941     0.18500
C648        C  0.13877338  0.83914048  0.07587393    -0.19500
C649        C  0.11274177  0.82171325  0.03716904    -0.20800
C650        C  0.09683286  0.80316139  0.02361811    -0.19300
C651        C  0.08995449  0.78266455  0.03558752     0.19900
C652        C  0.09961103  0.78063891  0.06146322     0.02000
C653        C  0.09102153  0.75985755  0.07401258    -0.14100
C654        C  0.07382021  0.74184773  0.06118188    -0.11800
C655        C  0.06500176  0.74377274  0.03511081     0.01500
C656        C  0.07320303  0.76417710  0.02221049    -0.24000
H657        H  0.15446822  0.81607298  0.12808570     0.09500
H658        H  0.12651773  0.78361654  0.10696692     0.13100
H659        H  0.14249385  0.85483640  0.06737792     0.11800
H660        H  0.11730537  0.83736248  0.02774446     0.13000
H661        H  0.08949365  0.80489769  0.00401010     0.12000
H662        H  0.09683113  0.75710476  0.09420523     0.09100
H663        H  0.06753303  0.72619150  0.07152340     0.12400
H664        H  0.06607559  0.76572715  0.00226822     0.14200
C665        C  0.00861812  0.56844112  0.16733038    -0.01300
C666        C  0.02828341  0.58772230  0.16432675    -0.09300
C667        C  0.03008082  0.60400328  0.14553175    -0.18100
C668        C  0.01206435  0.60148085  0.12927188     0.04300
C669        C  0.99190111  0.58228346  0.13368408     0.18500
C670        C  0.99045865  0.56592160  0.15219979    -0.19500
C671        C  0.97330876  0.57937169  0.11931655    -0.20800
C672        C  0.97427551  0.59500246  0.10034904    -0.19300
C673        C  0.99398164  0.61366302  0.09456332     0.19900
C674        C  0.01325834  0.61712067  0.10866594     0.02000
C675        C  0.03290344  0.63570521  0.10077876    -0.14100
C676        C  0.03333111  0.65001518  0.07960606    -0.11800
C677        C  0.01421009  0.64663396  0.06616918     0.01500
C678        C  0.99456415  0.62860301  0.07411472    -0.24000
H679        H  0.04245403  0.58994054  0.17603552     0.09500
H680        H  0.04574245  0.61835835  0.14415776     0.13100
H681        H  0.97518306  0.55105351  0.15475805     0.11800
H682        H  0.95787392  0.56486952  0.12277076     0.13000
H683        H  0.95955145  0.59222428  0.08959601     0.12000
H684        H  0.04826601  0.63928208  0.11001142     0.09100
H685        H  0.04872197  0.66384037  0.07372594     0.12400
H686        H  0.97975124  0.62573239  0.06349903     0.14200
C687        C  0.02315411  0.43218420  0.93109910    -0.01300
C688        C  0.00544936  0.42726201  0.91312334    -0.09300
C689        C  0.00653986  0.44186612  0.89204290    -0.18100
C690        C  0.02542894  0.46220543  0.88854045     0.04300
C691        C  0.04342248  0.46704176  0.90672630     0.18500
C692        C  0.04223105  0.45197475  0.92745277    -0.19500
C693        C  0.06235121  0.48710120  0.90461082    -0.20800
C694        C  0.06366148  0.50271517  0.88531243    -0.19300
C695        C  0.04618992  0.49859326  0.86735908     0.19900
C696        C  0.02694373  0.47812435  0.86823533     0.02000
C697        C  0.00997630  0.47468641  0.84908208    -0.14100
C698        C  0.01181790  0.49113567  0.83067878    -0.11800
C699        C  0.03052519  0.51143570  0.83071029     0.01500
C700        C  0.04771865  0.51501100  0.84888644    -0.24000
H701        H  0.99053303  0.41203571  0.91550460     0.09500
H702        H  0.99219298  0.43693152  0.87928422     0.13100
H703        H  0.05594391  0.45597039  0.94142601     0.11800
H704        H  0.07611983  0.49089482  0.91835679     0.13000
H705        H  0.07842123  0.51822870  0.88459934     0.12000
H706        H  0.99502524  0.45958451  0.84799314     0.09100
H707        H  0.99832309  0.48818126  0.81683926     0.12400
H708        H  0.06221291  0.53076611  0.84887251     0.14200
C709        C  0.02640505  0.57832455  0.83280258    -0.01300
C710        C  0.00913745  0.57019031  0.85235444    -0.09300
C711        C  0.00641642  0.58384209  0.87126864    -0.18100
C712        C  0.02113103  0.60630164  0.87163715     0.04300
C713        C  0.03841737  0.61465624  0.85125877     0.18500
C714        C  0.04084109  0.60064998  0.83193517    -0.19500
C715        C  0.05338469  0.63682926  0.85083088    -0.20800
C716        C  0.05199717  0.65076402  0.87080665    -0.19300
C717        C  0.03550535  0.64293627  0.89161478     0.19900
C718        C  0.01958395  0.62063013  0.89192306     0.02000
C719        C  0.00300436  0.61356777  0.91291014    -0.14100
C720        C  0.00249662  0.62781010  0.93307782    -0.11800
C721        C  0.01851271  0.64962440  0.93334957     0.01500
C722        C  0.03493507  0.65716395  0.91239020    -0.24000
H723        H  0.99768257  0.55301264  0.85303561     0.09500
H724        H  0.99270832  0.57612181  0.88572613     0.13100
H725        H  0.05421337  0.60699008  0.81670218     0.11800
H726        H  0.06650837  0.64338834  0.83525421     0.13000
H727        H  0.06407756  0.66777513  0.87018659     0.12000
H728        H  0.99011880  0.59698854  0.91454458     0.09100
H729        H  0.98963386  0.62155519  0.94899857     0.12400
H730        H  0.04733128  0.67409417  0.91232361     0.14200
C731        C  0.67462803  0.90341055  0.49608717    -0.01300
C732        C  0.69429214  0.92277584  0.49407363    -0.09300
C733        C  0.69657421  0.93917368  0.47520373    -0.18100
C734        C  0.67905633  0.93667438  0.45782964     0.04300
C735        C  0.65891490  0.91723049  0.46089505     0.18500
C736        C  0.65698517  0.90078348  0.47959195    -0.19500
C737        C  0.64084076  0.91417460  0.44504750    -0.20800
C738        C  0.64228796  0.92997536  0.42602981    -0.19300
C739        C  0.66195698  0.94904970  0.42191016     0.19900
C740        C  0.68072921  0.95263392  0.43748826     0.02000
C741        C  0.70037448  0.97181419  0.43153213    -0.14100
C742        C  0.70126375  0.98670301  0.41101440    -0.11800
C743        C  0.68262787  0.98317062  0.39607777     0.01500
C744        C  0.66300363  0.96439205  0.40184122    -0.24000
H745        H  0.70811310  0.92497857  0.50664132     0.09500
H746        H  0.71222465  0.95357533  0.47466801     0.13100
H747        H  0.64174576  0.88577014  0.48123880     0.11800
H748        H  0.62543898  0.89944320  0.44740130     0.13000
H749        H  0.62795857  0.92710635  0.41412630     0.12000
H750        H  0.71541070  0.97556558  0.44194672     0.09100
H751        H  0.71666770  0.00103084  0.40672226     0.12400
H752        H  0.64858115  0.96138397  0.39003456     0.14200
C753        C  0.67028265  0.83196205  0.49544885    -0.01300
C754        C  0.65125422  0.81819336  0.48057801    -0.09300
C755        C  0.65026688  0.80192402  0.46262363    -0.18100
C756        C  0.66857715  0.79920371  0.45855932     0.04300
C757        C  0.68761573  0.81278845  0.47459686     0.18500
C758        C  0.68830559  0.82897360  0.49274505    -0.19500
C759        C  0.70600655  0.81042478  0.47202421    -0.20800
C760        C  0.70614387  0.79521748  0.45330974    -0.19300
C761        C  0.68802821  0.78223345  0.43631506     0.19900
C762        C  0.66890305  0.78390342  0.43873607     0.02000
C763        C  0.65129677  0.77075519  0.42042465    -0.14100
C764        C  0.65292593  0.75708284  0.40005240    -0.11800
C765        C  0.67197890  0.75586079  0.39745344     0.01500
C766        C  0.68926205  0.76812705  0.41614349    -0.24000
H767        H  0.63708479  0.82011465  0.48283370     0.09500
H768        H  0.63503070  0.79189087  0.45203260     0.13100
H769        H  0.70302459  0.83959295  0.50437187     0.11800
H770        H  0.72049079  0.82058728  0.48434119     0.13000
H771        H  0.72075142  0.79398530  0.45158712     0.12000
H772        H  0.63629307  0.77112843  0.42072805     0.09100
H773        H  0.63936481  0.74780129  0.38580433     0.12400
H774        H  0.70410136  0.76732544  0.41426543     0.14200
C775        C  0.69475620  0.99071126  0.26252920    -0.01300
C776        C  0.71523349  0.99339401  0.25619215    -0.09300
C777        C  0.71751363  0.97974887  0.23651649    -0.18100
C778        C  0.69925001  0.96303079  0.22241378     0.04300
C779        C  0.67870702  0.96132500  0.22770450     0.18500
C780        C  0.67663468  0.97492980  0.24781323    -0.19500
C781        C  0.66026546  0.94582528  0.21325429    -0.20800
C782        C  0.66169069  0.93168283  0.19386813    -0.19300
C783        C  0.68147715  0.93232180  0.18905991     0.19900
C784        C  0.70054286  0.94785536  0.20346586     0.02000
C785        C  0.71987517  0.94703056  0.19897253    -0.14100
C786        C  0.72019415  0.93145767  0.18094372    -0.11800
C787        C  0.70148820  0.91663022  0.16639971     0.01500
C788        C  0.68220998  0.91715736  0.17039780    -0.24000
H789        H  0.72948062  0.00566409  0.26714871     0.09500
H790        H  0.73374587  0.98265795  0.23285075     0.13100
H791        H  0.66077352  0.97303574  0.25230848     0.11800
H792        H  0.64460650  0.94459633  0.21702804     0.13000
H793        H  0.64710803  0.91984322  0.18301935     0.12000
H794        H  0.73485708  0.95781536  0.20964307     0.09100
H795        H  0.73513101  0.93096453  0.17827295     0.12400
H796        H  0.66762945  0.90531237  0.15950667     0.14200
C797        C  0.70204454  0.84772384  0.16380349    -0.01300
C798        C  0.72022269  0.85140011  0.17990949    -0.09300
C799        C  0.71959013  0.83532114  0.19800292    -0.18100
C800        C  0.70042054  0.81513234  0.20105651     0.04300
C801        C  0.68207185  0.81153186  0.18441405     0.18500
C802        C  0.68315764  0.82763391  0.16573085    -0.19500
C803        C  0.66247099  0.79220208  0.18731441    -0.20800
C804        C  0.66039560  0.77662387  0.20718926    -0.19300
C805        C  0.67800971  0.77975705  0.22419292     0.19900
C806        C  0.69847487  0.79874882  0.22082286     0.02000
C807        C  0.71591039  0.80061718  0.23781262    -0.14100
C808        C  0.71282472  0.78482171  0.25826022    -0.11800
C809        C  0.69235091  0.76671073  0.26245499     0.01500
C810        C  0.67512684  0.76411718  0.24494729    -0.24000
H811        H  0.73491134  0.86693043  0.17872238     0.09500
H812        H  0.73411823  0.83943950  0.21000502     0.13100
H813        H  0.66897978  0.82491610  0.15354366     0.11800
H814        H  0.64845403  0.78936014  0.17467831     0.13000
H815        H  0.64481489  0.76208387  0.20946775     0.12000
H816        H  0.73208196  0.81414136  0.23592436     0.09100
H817        H  0.72645373  0.78703648  0.27127248     0.12400
H818        H  0.65927882  0.74999317  0.24776357     0.14200
C819        C  0.35612905  0.33507802  0.96277957    -0.01300
C820        C  0.33810198  0.32396531  0.94487776    -0.09300
C821        C  0.33289804  0.30380804  0.93355545    -0.18100
C822        C  0.34583620  0.29418985  0.93951781     0.04300
C823        C  0.36437174  0.30574752  0.95732294     0.18500
C824        C  0.36915936  0.32584834  0.96906202    -0.19500
C825        C  0.37822793  0.29736377  0.96285302    -0.20800
C826        C  0.37446173  0.27804430  0.95030952    -0.19300
C827        C  0.35650023  0.26642469  0.93243232     0.19900
C828        C  0.34149789  0.27392379  0.92760389     0.02000
C829        C  0.32298257  0.26093969  0.91069549    -0.14100
C830        C  0.32045536  0.24229885  0.89721230    -0.11800
C831        C  0.33630371  0.23609295  0.89992064     0.01500
C832        C  0.35381372  0.24769855  0.91855766    -0.24000
H833        H  0.32787946  0.33087311  0.93963982     0.09500
H834        H  0.31891279  0.29640459  0.91968956     0.13100
H835        H  0.38332978  0.33454658  0.98260584     0.11800
H836        H  0.39236676  0.30606789  0.97642013     0.13000
H837        H  0.38581576  0.27227430  0.95435856     0.12000
H838        H  0.31025471  0.26483912  0.90725994     0.09100
H839        H  0.30634347  0.23301644  0.88383314     0.12400
H840        H  0.36594409  0.24273310  0.92116013     0.14200
C841        C  0.67432007  0.74646573  0.03301443    -0.01300
C842        C  0.69228923  0.75700999  0.05120599    -0.09300
C843        C  0.69739195  0.77669877  0.06408389    -0.18100
C844        C  0.68446438  0.78650675  0.05940598     0.04300
C845        C  0.66587226  0.77546697  0.04153154     0.18500
C846        C  0.66114243  0.75579126  0.02824890    -0.19500
C847        C  0.65200853  0.78402646  0.03728405    -0.20800
C848        C  0.65605592  0.80318623  0.05067157    -0.19300
C849        C  0.67431288  0.81452656  0.06816675     0.19900
C850        C  0.68906054  0.80661382  0.07228599     0.02000
C851        C  0.70776861  0.81921472  0.08908247    -0.14100
C852        C  0.71106057  0.83821492  0.10239359    -0.11800
C853        C  0.69576253  0.84518066  0.09980561     0.01500
C854        C  0.67773349  0.83358022  0.08196333    -0.24000
H855        H  0.70259825  0.75003665  0.05544470     0.09500
H856        H  0.71137862  0.78364847  0.07795509     0.13100
H857        H  0.64699340  0.74755895  0.01455303     0.11800
H858        H  0.63775862  0.77568616  0.02381226     0.13000
H859        H  0.64480948  0.80918540  0.04730423     0.12000
H860        H  0.72019904  0.81486947  0.09230532     0.09100
H861        H  0.72550409  0.84735240  0.11525057     0.12400
H862        H  0.66596254  0.83903615  0.07956320     0.14200
C863        C  0.40104285  0.41570889  0.69028882    -0.01300
C864        C  0.42293496  0.42192420  0.68660596    -0.09300
C865        C  0.43908347  0.44052415  0.69989494    -0.18100
C866        C  0.43378725  0.45356995  0.71743467     0.04300
C867        C  0.41155871  0.44762919  0.72011215     0.18500
C868        C  0.39550179  0.42887903  0.70661454    -0.19500
C869        C  0.40542885  0.46022745  0.73663471    -0.20800
C870        C  0.42091142  0.47859328  0.75078604    -0.19300
C871        C  0.44288782  0.48471001  0.74897736     0.19900
C872        C  0.44967515  0.47222540  0.73243773     0.02000
C873        C  0.47204419  0.47885954  0.73191742    -0.14100
C874        C  0.48700168  0.49727572  0.74673546    -0.11800
C875        C  0.48021527  0.50956083  0.76268922     0.01500
C876        C  0.45814738  0.50322177  0.76375079    -0.24000
H877        H  0.42761405  0.41205777  0.67396395     0.09500
H878        H  0.45553048  0.44413529  0.69617174     0.13100
H879        H  0.37858126  0.42426108  0.70940041     0.11800
H880        H  0.38851758  0.45581023  0.73869101     0.13000
H881        H  0.41563613  0.48800214  0.76341850     0.12000
H882        H  0.47850714  0.47008372  0.72048292     0.09100
H883        H  0.50399111  0.50180165  0.74611413     0.12400
H884        H  0.45288553  0.51273622  0.77620118     0.14200
C885        C  0.54576436  0.58139751  0.82696351    -0.01300
C886        C  0.56657148  0.58386272  0.82732921    -0.09300
C887        C  0.58232492  0.59871157  0.84588127    -0.18100
C888        C  0.57753685  0.61137346  0.86493494     0.04300
C889        C  0.55657310  0.60932180  0.86351658     0.18500
C890        C  0.54090586  0.59428046  0.84484247    -0.19500
C891        C  0.55126527  0.62208150  0.88100124    -0.20800
C892        C  0.56629817  0.63675625  0.90024950    -0.19300
C893        C  0.58677468  0.63856127  0.90304297     0.19900
C894        C  0.59263430  0.62575034  0.88560121     0.02000
C895        C  0.61304385  0.62731321  0.89036361    -0.14100
C896        C  0.62685411  0.64076732  0.91178026    -0.11800
C897        C  0.62105220  0.65341592  0.92873091     0.01500
C898        C  0.60117996  0.65258862  0.92390631    -0.24000
H899        H  0.57052113  0.57398453  0.81351940     0.09500
H900        H  0.59802989  0.59983742  0.84484406     0.13100
H901        H  0.52476710  0.59240550  0.84430089     0.11800
H902        H  0.53534188  0.62066343  0.87983367     0.13000
H903        H  0.56168782  0.64637830  0.91355085     0.12000
H904        H  0.61854741  0.61785715  0.87856679     0.09100
H905        H  0.64213915  0.64112481  0.91528469     0.12400
H906        H  0.59650805  0.66213046  0.93730214     0.14200
C907        C  0.40476987  0.43537507  0.92649956    -0.01300
C908        C  0.41789478  0.43012238  0.90962769    -0.09300
C909        C  0.43145275  0.44428519  0.88851067    -0.18100
C910        C  0.43263552  0.46451347  0.88389830     0.04300
C911        C  0.41911919  0.46970927  0.90096424     0.18500
C912        C  0.40503492  0.45496438  0.92162148    -0.19500
C913        C  0.42032218  0.48989164  0.89804557    -0.20800
C914        C  0.43514082  0.50531247  0.87917166    -0.19300
C915        C  0.44871263  0.50071980  0.86221346     0.19900
C916        C  0.44727859  0.48005138  0.86373369     0.02000
C917        C  0.46084057  0.47600852  0.84533412    -0.14100
C918        C  0.47579338  0.49211441  0.82716172    -0.11800
C919        C  0.47758949  0.51261523  0.82657793     0.01500
C920        C  0.46393919  0.51679780  0.84396525    -0.24000
H921        H  0.41791325  0.41503106  0.91304177     0.09500
H922        H  0.44128749  0.43916654  0.87681384     0.13100
H923        H  0.39502235  0.45917325  0.93482932     0.11800
H924        H  0.41011495  0.49398506  0.91099053     0.13000
H925        H  0.43606221  0.52099073  0.87792389     0.12000
H926        H  0.46038171  0.46061850  0.84453377     0.09100
H927        H  0.48634080  0.48869780  0.81390219     0.12400
H928        H  0.46534136  0.53271374  0.84337322     0.14200
C929        C  0.63423758  0.66335282  0.29921892    -0.01300
C930        C  0.61251872  0.65491239  0.30727938    -0.09300
C931        C  0.59636282  0.63576961  0.29499992    -0.18100
C932        C  0.60154871  0.62433761  0.27436842     0.04300
C933        C  0.62378086  0.63241894  0.26753970     0.18500
C934        C  0.63976238  0.65187531  0.27960878    -0.19500
C935        C  0.62996090  0.62115022  0.24850297    -0.20800
C936        C  0.61449367  0.60212804  0.23566835    -0.19300
C937        C  0.59243845  0.59427947  0.24086391     0.19900
C938        C  0.58557093  0.60531133  0.26011388     0.02000
C939        C  0.56303417  0.59713628  0.26356636    -0.14100
C940        C  0.54805629  0.57899632  0.24821231    -0.11800
C941        C  0.55498085  0.56825357  0.22929158     0.01500
C942        C  0.57719432  0.57568202  0.22634507    -0.24000
H943        H  0.60792213  0.66341900  0.32265919     0.09500
H944        H  0.58000193  0.63031296  0.30212652     0.13100
H945        H  0.65660689  0.65814045  0.27366061     0.11800
H946        H  0.64690020  0.62711324  0.24346727     0.13000
H947        H  0.61980195  0.59379129  0.22098278     0.12000
H948        H  0.55648958  0.60474910  0.27732153     0.09100
H949        H  0.53093956  0.57353524  0.25077400     0.12400
H950        H  0.58265552  0.56710372  0.21233952     0.14200
C951        C  0.41212517  0.42825893  0.06220504    -0.01300
C952        C  0.40758102  0.44165593  0.07952410    -0.09300
C953        C  0.42189031  0.45425320  0.10109203    -0.18100
C954        C  0.44150057  0.45407074  0.10585088     0.04300
C955        C  0.44602887  0.44038431  0.08823013     0.18500
C956        C  0.43123610  0.42744845  0.06691724    -0.19500
C957        C  0.46553758  0.44012780  0.09148046    -0.20800
C958        C  0.48103411  0.45377283  0.11116425    -0.19300
C959        C  0.47721317  0.46769851  0.12845298     0.19900
C960        C  0.45709289  0.46753597  0.12671410     0.02000
C961        C  0.45364333  0.48120124  0.14555384    -0.14100
C962        C  0.46993020  0.49534551  0.16399786    -0.11800
C963        C  0.49004595  0.49621379  0.16451021     0.01500
C964        C  0.49354917  0.48215176  0.14707146    -0.24000
H965        H  0.39291657  0.44255711  0.07622996     0.09500
H966        H  0.41733240  0.46437020  0.11315907     0.13100
H967        H  0.43492669  0.41722807  0.05338140     0.11800
H968        H  0.46906446  0.42968396  0.07819595     0.13000
H969        H  0.49621015  0.45360576  0.11264711     0.12000
H970        H  0.43860815  0.48152632  0.14641227     0.09100
H971        H  0.46700137  0.50609768  0.17748647     0.12400
H972        H  0.50911596  0.48271646  0.14777624     0.14200
C973        C  0.55834436  0.56516363  0.16495616    -0.01300
C974        C  0.57383631  0.56200181  0.15036126    -0.09300
C975        C  0.58876652  0.57785540  0.13175217    -0.18100
C976        C  0.58823051  0.59724454  0.12654524     0.04300
C977        C  0.57243689  0.60032563  0.14158423     0.18500
C978        C  0.55795325  0.58449896  0.16088024    -0.19500
C979        C  0.57069123  0.61884427  0.13655174    -0.20800
C980        C  0.58379711  0.63408742  0.11618655    -0.19300
C981        C  0.59928886  0.63142164  0.10073048     0.19900
C982        C  0.60219052  0.61329254  0.10621695     0.02000
C983        C  0.61869482  0.61190307  0.09073408    -0.14100
C984        C  0.63109521  0.62736284  0.06987860    -0.11800
C985        C  0.62741134  0.64458572  0.06364381     0.01500
C986        C  0.61168400  0.64666886  0.07946221    -0.24000
H987        H  0.57421613  0.54703957  0.15319464     0.09500
H988        H  0.60005436  0.57415819  0.12109553     0.13100
H989        H  0.54572593  0.58679067  0.17189663     0.11800
H990        H  0.55871588  0.62130150  0.14794659     0.13000
H991        H  0.58166471  0.64798179  0.11231451     0.12000
H992        H  0.62236728  0.59904479  0.09417286     0.09100
H993        H  0.64332080  0.62555155  0.05812405     0.12400
H994        H  0.60896796  0.66015335  0.07507586     0.14200
C995        C  0.01384627  0.41389229  0.69998468    -0.01300
C996        C  0.03250051  0.42590989  0.71660170    -0.09300
C997        C  0.03675356  0.44554850  0.72909003    -0.18100
C998        C  0.02224324  0.45370590  0.72557085     0.04300
C999        C  0.00346797  0.44148040  0.70841483     0.18500
C1000       C  0.99957592  0.42195206  0.69570670    -0.19500
C1001       C  0.98842854  0.44859413  0.70436912    -0.20800
C1002       C  0.99137360  0.46744744  0.71739123    -0.19300
C1003       C  0.00950015  0.47975525  0.73466990     0.19900
C1004       C  0.02537484  0.47325590  0.73881019     0.02000
C1005       C  0.04344242  0.48646169  0.75636758    -0.14100
C1006       C  0.04521704  0.50485054  0.76991653    -0.11800
C1007       C  0.02914285  0.51070320  0.76644026     0.01500
C1008       C  0.01157145  0.49832847  0.74831888    -0.24000
H1009       H  0.04384979  0.42006393  0.72006846     0.09500
H1010       H  0.05137355  0.45381187  0.74165941     0.13100
H1011       H  0.98509234  0.41275083  0.68289131     0.11800
H1012       H  0.97410923  0.43935031  0.69130222     0.13000
H1013       H  0.97925644  0.47234010  0.71411868     0.12000
H1014       H  0.05633639  0.48288990  0.76031115     0.09100
H1015       H  0.05907636  0.51440364  0.78358840     0.12400
H1016       H  0.99906768  0.50278319  0.74565187     0.14200
C1017       C  0.67794317  0.90510907  0.56115298    -0.01300
C1018       C  0.69426553  0.91475524  0.58198436    -0.09300
C1019       C  0.69648972  0.93223050  0.59839131    -0.18100
C1020       C  0.68248662  0.94090796  0.59431360     0.04300
C1021       C  0.66586579  0.93103018  0.57325558     0.18500
C1022       C  0.66353524  0.91313541  0.55733851    -0.19500
C1023       C  0.65188116  0.93928899  0.56786732    -0.20800
C1024       C  0.65447011  0.95759880  0.58225616    -0.19300
C1025       C  0.67083021  0.96786818  0.60286083     0.19900
C1026       C  0.68470581  0.95933401  0.60979292     0.02000
C1027       C  0.70035378  0.96980519  0.63166736    -0.14100
C1028       C  0.70275721  0.98848491  0.64505289    -0.11800
C1029       C  0.68980796  0.99745105  0.63707397     0.01500
C1030       C  0.67362110  0.98684935  0.61626811    -0.24000
H1031       H  0.70562574  0.90891378  0.58536009     0.09500
H1032       H  0.70962297  0.93885772  0.61364747     0.13100
H1033       H  0.65048940  0.90546964  0.54183681     0.11800
H1034       H  0.63913090  0.93181272  0.55191610     0.13000
H1035       H  0.64368203  0.96386183  0.57707945     0.12000
H1036       H  0.71106583  0.96404542  0.63882856     0.09100
H1037       H  0.71525579  0.99628319  0.66123482     0.12400
H1038       H  0.66332607  0.99352666  0.61023252     0.14200
C1039       C  0.73124578  0.08378244  0.36184257    -0.01300
C1040       C  0.75324067  0.09177442  0.35591548    -0.09300
C1041       C  0.76902164  0.11058674  0.36915669    -0.18100
C1042       C  0.76322891  0.12214880  0.38876441     0.04300
C1043       C  0.74080613  0.11413136  0.39425532     0.18500
C1044       C  0.72511594  0.09514529  0.38081319    -0.19500
C1045       C  0.73416274  0.12487130  0.41354636    -0.20800
C1046       C  0.74933021  0.14328846  0.42789704    -0.19300
C1047       C  0.77150692  0.15142889  0.42329468     0.19900
C1048       C  0.77882481  0.14111110  0.40350334     0.02000
C1049       C  0.80143440  0.15008131  0.39968631    -0.14100
C1050       C  0.81607301  0.16790158  0.41578101    -0.11800
C1051       C  0.80876269  0.17763101  0.43582572     0.01500
C1052       C  0.78643349  0.16968524  0.43875832    -0.24000
H1053       H  0.75834223  0.08314503  0.34145977     0.09500
H1054       H  0.78559299  0.11546731  0.36383708     0.13100
H1055       H  0.70808568  0.08902771  0.38545310     0.11800
H1056       H  0.71710795  0.11885147  0.41780021     0.13000
H1057       H  0.74366822  0.15109086  0.44297284     0.12000
H1058       H  0.80836731  0.14350803  0.38482295     0.09100
H1059       H  0.83325230  0.17380790  0.41298392     0.12400
H1060       H  0.78064135  0.17755220  0.45353193     0.14200
C1061       C  0.80429235  0.17801003  0.50042414    -0.01300
C1062       C  0.80269065  0.15758197  0.49963363    -0.09300
C1063       C  0.78782058  0.14079679  0.51714278    -0.18100
C1064       C  0.77413890  0.14404661  0.53635115     0.04300
C1065       C  0.77515530  0.16455656  0.53602903     0.18500
C1066       C  0.79023356  0.18129987  0.51830302    -0.19500
C1067       C  0.76152450  0.16841944  0.55395877    -0.20800
C1068       C  0.74742533  0.15260847  0.57306009    -0.19300
C1069       C  0.74684385  0.13265536  0.57503268     0.19900
C1070       C  0.76000246  0.12796869  0.55646060     0.02000
C1071       C  0.75908684  0.10772704  0.55966591    -0.14100
C1072       C  0.74643279  0.09324475  0.58119064    -0.11800
C1073       C  0.73401875  0.09819499  0.59997783     0.01500
C1074       C  0.73379361  0.11767209  0.59625291    -0.24000
H1075       H  0.81344449  0.15476261  0.48593095     0.09500
H1076       H  0.78770006  0.12563008  0.51544648     0.13100
H1077       H  0.79136849  0.19709371  0.51876488     0.11800
H1078       H  0.76203559  0.18392753  0.55356386     0.13000
H1079       H  0.73736206  0.15625705  0.58699168     0.12000
H1080       H  0.76843005  0.10283931  0.54651022     0.09100
H1081       H  0.74672372  0.07819921  0.58348101     0.12400
H1082       H  0.72419981  0.12160369  0.61069701     0.14200
C1083       C  0.95566996  0.31825690  0.60195004    -0.01300
C1084       C  0.94738218  0.32707244  0.58189239    -0.09300
C1085       C  0.93120397  0.31372274  0.56239111    -0.18100
C1086       C  0.92262644  0.29100073  0.56265896     0.04300
C1087       C  0.93117818  0.28226730  0.58317272     0.18500
C1088       C  0.94758568  0.29586357  0.60221847    -0.19500
C1089       C  0.92317315  0.25994638  0.58489532    -0.20800
C1090       C  0.90672572  0.24595472  0.56671369    -0.19300
C1091       C  0.89799836  0.25395130  0.54619343     0.19900
C1092       C  0.90581588  0.27656880  0.54362253     0.02000
C1093       C  0.89644049  0.28360934  0.52211323    -0.14100
C1094       C  0.88008739  0.26876547  0.50397089    -0.11800
C1095       C  0.87265962  0.24658504  0.50674147     0.01500
C1096       C  0.88154307  0.23932695  0.52805336    -0.24000
H1097       H  0.95336928  0.34434641  0.58134076     0.09500
H1098       H  0.92556723  0.32161288  0.54762090     0.13100
H1099       H  0.95378025  0.28885803  0.61781473     0.11800
H1100       H  0.92960794  0.25323040  0.60055655     0.13000
H1101       H  0.90082638  0.22873473  0.56866858     0.12000
H1102       H  0.90151256  0.30044587  0.51865635     0.09100
H1103       H  0.87334106  0.27459875  0.48755468     0.12400
H1104       H  0.87588912  0.22213894  0.53003184     0.14200
C1105       C  0.89567163  0.23365714  0.89676468    -0.01300
C1106       C  0.88822883  0.24352017  0.91641092    -0.09300
C1107       C  0.90270497  0.26206026  0.93145236    -0.18100
C1108       C  0.92530506  0.27162057  0.92702912     0.04300
C1109       C  0.93279811  0.26162357  0.90695617     0.18500
C1110       C  0.91805758  0.24254719  0.89269057    -0.19500
C1111       C  0.95492602  0.27096847  0.90077557    -0.20800
C1112       C  0.96978682  0.29029339  0.91369842    -0.19300
C1113       C  0.96296639  0.30043678  0.93374079     0.19900
C1114       C  0.94068990  0.29098579  0.94126118     0.02000
C1115       C  0.93483272  0.30137045  0.96267194    -0.14100
C1116       C  0.95033224  0.32070848  0.97523683    -0.11800
C1117       C  0.97207172  0.33042880  0.96676061     0.01500
C1118       C  0.97831393  0.32008178  0.94621287    -0.24000
H1119       H  0.87100794  0.23708520  0.91973573     0.09500
H1120       H  0.89565037  0.26884912  0.94576194     0.13100
H1121       H  0.92400479  0.23481871  0.87793606     0.11800
H1122       H  0.96073823  0.26350476  0.88538664     0.13000
H1123       H  0.98676454  0.29733587  0.90801916     0.12000
H1124       H  0.91843837  0.29492327  0.97028104     0.09100
H1125       H  0.94517401  0.32832275  0.99127412     0.12400
H1126       H  0.99519052  0.32736718  0.93984651     0.14200
C1127       C  0.89799392  0.23099101  0.83212071    -0.01300
C1128       C  0.91173150  0.22711221  0.81450247    -0.09300
C1129       C  0.92672336  0.24326978  0.79634632    -0.18100
C1130       C  0.92811084  0.26383011  0.79476558     0.04300
C1131       C  0.91415549  0.26769542  0.81286418     0.18500
C1132       C  0.89953054  0.25143762  0.83159432    -0.19500
C1133       C  0.91428286  0.28745315  0.81131365    -0.20800
C1134       C  0.92715730  0.30306149  0.79111118    -0.19300
C1135       C  0.94079850  0.29961612  0.77261698     0.19900
C1136       C  0.94212375  0.28031949  0.77500141     0.02000
C1137       C  0.95719642  0.27825796  0.75715972    -0.14100
C1138       C  0.96957949  0.29413569  0.73684671    -0.11800
C1139       C  0.96728821  0.31249405  0.73335330     0.01500
C1140       C  0.95299692  0.31525450  0.75153046    -0.24000
H1141       H  0.91068001  0.21136209  0.81461256     0.09500
H1142       H  0.93645341  0.23889535  0.78307767     0.13100
H1143       H  0.88869417  0.25437222  0.84500154     0.11800
H1144       H  0.90379460  0.29056949  0.82516386     0.13000
H1145       H  0.92633010  0.31787888  0.78981282     0.12000
H1146       H  0.95984231  0.26457435  0.75841283     0.09100
H1147       H  0.98066574  0.29174714  0.72326317     0.12400
H1148       H  0.95138289  0.32960137  0.74927882     0.14200
C1149       C  0.82937854  0.16162856  0.83210396    -0.01300
C1150       C  0.83349900  0.14771194  0.81527973    -0.09300
C1151       C  0.81741210  0.13219537  0.79759965    -0.18100
C1152       C  0.79667049  0.13043035  0.79569477     0.04300
C1153       C  0.79249983  0.14442751  0.81323996     0.18500
C1154       C  0.80873792  0.15969220  0.83134177    -0.19500
C1155       C  0.77237165  0.14357401  0.81194083    -0.20800
C1156       C  0.75657848  0.12979905  0.79267434    -0.19300
C1157       C  0.76039177  0.11630793  0.77445764     0.19900
C1158       C  0.78023597  0.11593868  0.77624209     0.02000
C1159       C  0.78292310  0.10150106  0.75787693    -0.14100
C1160       C  0.76708620  0.08888462  0.73761456    -0.11800
C1161       C  0.74804389  0.09012753  0.73500250     0.01500
C1162       C  0.74463340  0.10355270  0.75395572    -0.24000
H1163       H  0.84934358  0.14893261  0.81578237     0.09500
H1164       H  0.82189587  0.12219485  0.78516902     0.13100
H1165       H  0.80554832  0.17053031  0.84431113     0.11800
H1166       H  0.76901717  0.15406334  0.82539401     0.13000
H1167       H  0.74138885  0.12997007  0.79167021     0.12000
H1168       H  0.79719461  0.09977847  0.75837879     0.09100
H1169       H  0.76998728  0.07842743  0.72349393     0.12400
H1170       H  0.72980976  0.10440644  0.75239697     0.14200
C1171       C  0.34470887  0.32235341  0.36273834    -0.01300
C1172       C  0.33048817  0.30044450  0.35739260    -0.09300
C1173       C  0.33334848  0.28442692  0.37082695    -0.18100
C1174       C  0.35079291  0.28983908  0.38999416     0.04300
C1175       C  0.36565740  0.31214871  0.39454985     0.18500
C1176       C  0.36233091  0.32812092  0.38127931    -0.19500
C1177       C  0.38370866  0.31836453  0.41236185    -0.20800
C1178       C  0.38721229  0.30289604  0.42604214    -0.19300
C1179       C  0.37250158  0.28082988  0.42276790     0.19900
C1180       C  0.35400706  0.27395950  0.40480139     0.02000
C1181       C  0.33934534  0.25150387  0.40286872    -0.14100
C1182       C  0.34286391  0.23658119  0.41817073    -0.11800
C1183       C  0.36108054  0.24341716  0.43580871     0.01500
C1184       C  0.37600283  0.26557261  0.43771038    -0.24000
H1185       H  0.31679461  0.29561443  0.34308751     0.09500
H1186       H  0.32165462  0.26795315  0.36561215     0.13100
H1187       H  0.37354391  0.34508505  0.38528093     0.11800
H1188       H  0.39521758  0.33532677  0.41573066     0.13000
H1189       H  0.40134647  0.30824581  0.43968234     0.12000
H1190       H  0.32475658  0.24492951  0.39015375     0.09100
H1191       H  0.33105309  0.21954586  0.41658524     0.12400
H1192       H  0.39028702  0.27093910  0.45107634     0.14200
C1193       C  0.39110639  0.41490115  0.29538507    -0.01300
C1194       C  0.40381547  0.40888579  0.27886718    -0.09300
C1195       C  0.42305521  0.42449937  0.26607711    -0.18100
C1196       C  0.43017015  0.44683193  0.26916939     0.04300
C1197       C  0.41725575  0.45285285  0.28613048     0.18500
C1198       C  0.39808562  0.43694258  0.29925633    -0.19500
C1199       C  0.42334908  0.47470643  0.28949920    -0.20800
C1200       C  0.44190356  0.49076652  0.27614026    -0.19300
C1201       C  0.45496962  0.48541120  0.25928178     0.19900
C1202       C  0.44941492  0.46337009  0.25574288     0.02000
C1203       C  0.46332762  0.45887565  0.23878617    -0.14100
C1204       C  0.48163494  0.47547974  0.22547196    -0.11800
C1205       C  0.48668886  0.49708489  0.22833973     0.01500
C1206       C  0.47346657  0.50197884  0.24566217    -0.24000
H1207       H  0.39877899  0.39195656  0.27561448     0.09500
H1208       H  0.43179418  0.41851616  0.25356268     0.13100
H1209       H  0.38827640  0.44173911  0.31190062     0.11800
H1210       H  0.41356616  0.47941286  0.30234011     0.13000
H1211       H  0.44603567  0.50751355  0.27896385     0.12000
H1212       H  0.46052954  0.44270744  0.23531692     0.09100
H1213       H  0.49185514  0.47139879  0.21255734     0.12400
H1214       H  0.47731255  0.51869438  0.24793932     0.14200
C1215       C  0.00701740  0.49747418  0.23232639    -0.01300
C1216       C  0.99061087  0.47597202  0.22850598    -0.09300
C1217       C  0.99144811  0.45891440  0.24258830    -0.18100
C1218       C  0.00881099  0.46281196  0.26124049     0.04300
C1219       C  0.02488944  0.48472445  0.26599254     0.18500
C1220       C  0.02380302  0.50169705  0.25171803    -0.19500
C1221       C  0.04230052  0.48960072  0.28446275    -0.20800
C1222       C  0.04451791  0.47320533  0.29770580    -0.19300
C1223       C  0.02939629  0.45144923  0.29284556     0.19900
C1224       C  0.01112732  0.44587101  0.27486809     0.02000
C1225       C  0.99636670  0.42359343  0.27080750    -0.14100
C1226       C  0.00007763  0.40766295  0.28313293    -0.11800
C1227       C  0.01840841  0.41327652  0.30021073     0.01500
C1228       C  0.03276779  0.43524685  0.30538925    -0.24000
H1229       H  0.97713032  0.47230232  0.21426899     0.09500
H1230       H  0.97839814  0.44285372  0.23820174     0.13100
H1231       H  0.03649653  0.51826325  0.25497001     0.11800
H1232       H  0.05452493  0.50625355  0.28834832     0.13000
H1233       H  0.05840398  0.47759137  0.31149817     0.12000
H1234       H  0.98200860  0.41796607  0.25778926     0.09100
H1235       H  0.98862508  0.39081399  0.27896132     0.12400
H1236       H  0.04699842  0.43980462  0.31856636     0.14200
C1237       C  0.87891232  0.24661663  0.44137718    -0.01300
C1238       C  0.87698985  0.25446677  0.41431921    -0.09300
C1239       C  0.89531510  0.26890331  0.39858824    -0.18100
C1240       C  0.91635098  0.27671956  0.40993272     0.04300
C1241       C  0.91821268  0.26973158  0.43800106     0.18500
C1242       C  0.89978494  0.25401522  0.45260192    -0.19500
C1243       C  0.93845615  0.27859303  0.45145954    -0.20800
C1244       C  0.95692144  0.29435944  0.43762587    -0.19300
C1245       C  0.95578858  0.30073168  0.40936985     0.19900
C1246       C  0.93558802  0.29148199  0.39471844     0.02000
C1247       C  0.93565715  0.29702079  0.36532848    -0.14100
C1248       C  0.95494786  0.31159715  0.35138890    -0.11800
C1249       C  0.97453915  0.32157549  0.36652677     0.01500
C1250       C  0.97482817  0.31608789  0.39550426    -0.24000
H1251       H  0.86115525  0.24935343  0.40514241     0.09500
H1252       H  0.89253040  0.27422046  0.37801452     0.13100
H1253       H  0.90186708  0.24754884  0.47274616     0.11800
H1254       H  0.93994594  0.27363259  0.47308376     0.13000
H1255       H  0.97229365  0.30124054  0.44885889     0.12000
H1256       H  0.92112268  0.28990153  0.35242831     0.09100
H1257       H  0.95448818  0.31542533  0.32886355     0.12400
H1258       H  0.99009153  0.32339528  0.40708147     0.14200
C1259       C  0.05914215  0.36851756  0.63020181    -0.01300
C1260       C  0.07044012  0.38621534  0.61168121    -0.09300
C1261       C  0.09000237  0.39023677  0.59893747    -0.18100
C1262       C  0.09871692  0.37634912  0.60398150     0.04300
C1263       C  0.08725127  0.35860133  0.62313608     0.18500
C1264       C  0.06786336  0.35501879  0.63617052    -0.19500
C1265       C  0.09493558  0.34420903  0.62879210    -0.20800
C1266       C  0.11350424  0.34666917  0.61528986    -0.19300
C1267       C  0.12493529  0.36363222  0.59584708     0.19900
C1268       C  0.11799241  0.37898999  0.59022930     0.02000
C1269       C  0.13042194  0.39596388  0.57065030    -0.14100
C1270       C  0.14832132  0.39700500  0.55639524    -0.11800
C1271       C  0.15437722  0.38116557  0.56097503     0.01500
C1272       C  0.14294103  0.36489858  0.58136646    -0.24000
H1273       H  0.06410126  0.39699896  0.60698076     0.09500
H1274       H  0.09772500  0.40411527  0.58488287     0.13100
H1275       H  0.05919964  0.34126736  0.65045600     0.11800
H1276       H  0.08630047  0.33069958  0.64342957     0.13000
H1277       H  0.11878550  0.33499479  0.61977533     0.12000
H1278       H  0.12656684  0.40852002  0.56563194     0.09100
H1279       H  0.15728486  0.41008464  0.54129955     0.12400
H1280       H  0.14754326  0.35261492  0.58511540     0.14200
C1281       C  0.30690747  0.36539234  0.62356275    -0.01300
C1282       C  0.29989972  0.35630312  0.59620940    -0.09300
C1283       C  0.28261588  0.35691103  0.58268701    -0.18100
C1284       C  0.27214485  0.36721726  0.59592581     0.04300
C1285       C  0.28025586  0.37763991  0.62285667     0.18500
C1286       C  0.29702898  0.37603684  0.63684387    -0.19500
C1287       C  0.27173435  0.38979104  0.63540697    -0.20800
C1288       C  0.25567653  0.39221641  0.62140756    -0.19300
C1289       C  0.24686047  0.38150885  0.59537882     0.19900
C1290       C  0.25429892  0.36804845  0.58301360     0.02000
C1291       C  0.24312621  0.35549741  0.55878712    -0.14100
C1292       C  0.22612342  0.35726249  0.54641043    -0.11800
C1293       C  0.22050383  0.37248393  0.55651966     0.01500
C1294       C  0.23060213  0.38411284  0.58163236    -0.24000
H1295       H  0.30750757  0.34819363  0.58549784     0.09500
H1296       H  0.27813238  0.34968259  0.56157549     0.13100
H1297       H  0.30273850  0.38347515  0.65777922     0.11800
H1298       H  0.27792003  0.39793084  0.65582095     0.13000
H1299       H  0.24984960  0.40223405  0.63126065     0.12000
H1300       H  0.24669856  0.34364441  0.54961183     0.09100
H1301       H  0.21736139  0.34659119  0.52878397     0.12400
H1302       H  0.22596976  0.39540957  0.59037581     0.14200
C1303       C  0.21963664  0.37601099  0.49164218    -0.01300
C1304       C  0.21245155  0.35743943  0.47477858    -0.09300
C1305       C  0.22648218  0.35530181  0.45574390    -0.18100
C1306       C  0.24811612  0.37213562  0.45232654     0.04300
C1307       C  0.25516876  0.39114656  0.46923696     0.18500
C1308       C  0.24099312  0.39278513  0.48898969    -0.19500
C1309       C  0.27617283  0.40855289  0.46591066    -0.20800
C1310       C  0.29033197  0.40761493  0.44592292    -0.19300
C1311       C  0.28394837  0.38911639  0.42906845     0.19900
C1312       C  0.26282220  0.37099202  0.43228917     0.02000
C1313       C  0.25728334  0.35256177  0.41513577    -0.14100
C1314       C  0.27186975  0.35236027  0.39518706    -0.11800
C1315       C  0.29246915  0.37039264  0.39160323     0.01500
C1316       C  0.29851624  0.38868413  0.40879979    -0.24000
H1317       H  0.19585337  0.34444017  0.47655140     0.09500
H1318       H  0.21972038  0.34047402  0.44363774     0.13100
H1319       H  0.24634683  0.40729812  0.50179844     0.11800
H1320       H  0.28160676  0.42311648  0.47861194     0.13000
H1321       H  0.30639878  0.42147532  0.44362045     0.12000
H1322       H  0.24182522  0.33801047  0.41653767     0.09100
H1323       H  0.26685514  0.33796427  0.38227647     0.12400
H1324       H  0.31447092  0.40267961  0.40619217     0.14200
C1325       C  0.15407708  0.38193531  0.49643542    -0.01300
C1326       C  0.13393509  0.36311505  0.49614364    -0.09300
C1327       C  0.11768411  0.36120194  0.47745536    -0.18100
C1328       C  0.12117138  0.37821791  0.45837657     0.04300
C1329       C  0.14142713  0.39767257  0.45974731     0.18500
C1330       C  0.15771966  0.39926394  0.47847100    -0.19500
C1331       C  0.14544538  0.41523105  0.44200253    -0.20800
C1332       C  0.12986710  0.41380911  0.42253655    -0.19300
C1333       C  0.11005734  0.39464442  0.41990628     0.19900
C1334       C  0.10545615  0.37652692  0.43772389     0.02000
C1335       C  0.08556430  0.35730502  0.43350707    -0.14100
C1336       C  0.07107769  0.35603473  0.41225734    -0.11800
C1337       C  0.07564263  0.37388468  0.39479213     0.01500
C1338       C  0.09500896  0.39328894  0.39903798    -0.24000
H1339       H  0.13102851  0.34954773  0.50980983     0.09500
H1340       H  0.10266371  0.34612081  0.47831715     0.13100
H1341       H  0.17342986  0.41381733  0.47873564     0.11800
H1342       H  0.16079556  0.43014048  0.44307949     0.13000
H1343       H  0.13351745  0.42766745  0.40902168     0.12000
H1344       H  0.08089375  0.34276790  0.44578953     0.09100
H1345       H  0.05618071  0.34087889  0.40938843     0.12400
H1346       H  0.09871723  0.40710858  0.38539046     0.14200
C1347       C  0.21310104  0.35911355  0.09610732    -0.01300
C1348       C  0.21910826  0.34306970  0.09719235    -0.09300
C1349       C  0.23766288  0.34583439  0.08293302    -0.18100
C1350       C  0.25094593  0.36492837  0.06710392     0.04300
C1351       C  0.24435112  0.38086645  0.06536118     0.18500
C1352       C  0.22555201  0.37778865  0.07970204    -0.19500
C1353       C  0.25672254  0.39992734  0.04966927    -0.20800
C1354       C  0.27563830  0.40363683  0.03578111    -0.19300
C1355       C  0.28281052  0.38849261  0.03749957     0.19900
C1356       C  0.27061658  0.36891901  0.05324079     0.02000
C1357       C  0.27893641  0.35446142  0.05493379    -0.14100
C1358       C  0.29866673  0.35944772  0.04205388    -0.11800
C1359       C  0.31057921  0.37874745  0.02666477     0.01500
C1360       C  0.30239625  0.39304674  0.02406517    -0.24000
H1361       H  0.20945346  0.32837020  0.10940175     0.09500
H1362       H  0.24120667  0.33276212  0.08486213     0.13100
H1363       H  0.22087898  0.39021332  0.07877807     0.11800
H1364       H  0.25178106  0.41212384  0.04823342     0.13000
H1365       H  0.28489030  0.41861514  0.02392108     0.12000
H1366       H  0.27082043  0.33935567  0.06652392     0.09100
H1367       H  0.30469125  0.34814385  0.04426094    -0.00200
H1368       H  0.31166123  0.40811417  0.01236384     0.14200
C1369       C  0.29178718  0.36291808  0.25843366    -0.01300
C1370       C  0.29525089  0.38129766  0.24294749    -0.09300
C1371       C  0.28046255  0.38005834  0.22207234    -0.18100
C1372       C  0.26130507  0.36034838  0.21650491     0.04300
C1373       C  0.25771661  0.34180301  0.23264192     0.18500
C1374       C  0.27314100  0.34313279  0.25283959    -0.19500
C1375       C  0.23842802  0.32221507  0.22922844    -0.20800
C1376       C  0.22229378  0.32078383  0.21080445    -0.19300
C1377       C  0.22532565  0.33871319  0.19460419     0.19900
C1378       C  0.24518568  0.35855578  0.19641024     0.02000
C1379       C  0.24788686  0.37576575  0.17825906    -0.14100
C1380       C  0.23109581  0.37371892  0.16041778    -0.11800
C1381       C  0.21116068  0.35453892  0.16005790     0.01500
C1382       C  0.20846753  0.33700116  0.17688043    -0.24000
H1383       H  0.30944828  0.39679985  0.24714234     0.09500
H1384       H  0.28411819  0.39496079  0.21136083     0.13100
H1385       H  0.27014540  0.32893192  0.26518686     0.11800
H1386       H  0.23553957  0.30803325  0.24151158     0.13000
H1387       H  0.20730475  0.30555022  0.20927771     0.12000
H1388       H  0.26276574  0.39100065  0.17739998     0.09100
H1389       H  0.23349708  0.38737622  0.14731870     0.12400
H1390       H  0.19312795  0.32204178  0.17625171     0.14200
C1391       C  0.06145787  0.37484275  0.03071158    -0.01300
C1392       C  0.05481419  0.35663417  0.04838759    -0.09300
C1393       C  0.06997605  0.35193758  0.06089712    -0.18100
C1394       C  0.09246452  0.36563752  0.05650981     0.04300
C1395       C  0.09909069  0.38422759  0.03876820     0.18500
C1396       C  0.08362351  0.38840913  0.02569160    -0.19500
C1397       C  0.12113355  0.39883467  0.03469988    -0.20800
C1398       C  0.13680688  0.39562756  0.04828855    -0.19300
C1399       C  0.13086063  0.37746367  0.06575673     0.19900
C1400       C  0.10862195  0.36192625  0.06965481     0.02000
C1401       C  0.10359684  0.34345482  0.08664939    -0.14100
C1402       C  0.11991322  0.34104572  0.10015367    -0.11800
C1403       C  0.14169957  0.35695281  0.09738312     0.01500
C1404       C  0.14707027  0.37489567  0.07964833    -0.24000
H1405       H  0.03775646  0.34595463  0.05264903     0.09500
H1406       H  0.06360415  0.33776211  0.07442335     0.13100
H1407       H  0.08889621  0.40268254  0.01231805     0.11800
H1408       H  0.12629590  0.41307554  0.02131635     0.13000
H1409       H  0.15372750  0.40746919  0.04511790     0.12000
H1410       H  0.08723013  0.33057444  0.08988217     0.09100
H1411       H  0.11547440  0.32677774  0.11316656     0.12400
H1412       H  0.16393312  0.38718705  0.07725294     0.14200
C1413       C  0.14003088  0.35162793  0.16179084    -0.01300
C1414       C  0.13663840  0.36943728  0.16101197    -0.09300
C1415       C  0.12134385  0.37042639  0.17897951    -0.18100
C1416       C  0.10899988  0.35361605  0.19882840     0.04300
C1417       C  0.11219488  0.33534522  0.19919942     0.18500
C1418       C  0.12763865  0.33453654  0.18082390    -0.19500
C1419       C  0.10026708  0.31821817  0.21831654    -0.20800
C1420       C  0.08567623  0.31910660  0.23769280    -0.19300
C1421       C  0.08263558  0.33716465  0.23851719     0.19900
C1422       C  0.09405655  0.35455285  0.21880354     0.02000
C1423       C  0.09044003  0.37240714  0.22044530    -0.14100
C1424       C  0.07681677  0.37336139  0.24141087    -0.11800
C1425       C  0.06601925  0.35654022  0.26130992     0.01500
C1426       C  0.06865226  0.33822259  0.25939277    -0.24000
H1427       H  0.14622777  0.38293498  0.14675885     0.09500
H1428       H  0.11987517  0.38475404  0.17708516     0.13100
H1429       H  0.13023277  0.32071147  0.18151415     0.11800
H1430       H  0.10247782  0.30416082  0.21859164     0.13000
H1431       H  0.07697428  0.30571834  0.25248015     0.12000
H1432       H  0.09817603  0.38612653  0.20620644     0.09100
H1433       H  0.07495705  0.38761147  0.24225638     0.12400
H1434       H  0.06039739  0.32511932  0.27473023     0.14200
C1435       C  0.05451500  0.75411782  0.63468350    -0.01300
C1436       C  0.06244070  0.77580255  0.64225962    -0.09300
C1437       C  0.08139107  0.79220564  0.62967573    -0.18100
C1438       C  0.09325516  0.78735743  0.60927179     0.04300
C1439       C  0.08544339  0.76523393  0.60234735     0.18500
C1440       C  0.06612633  0.74898199  0.61467393    -0.19500
C1441       C  0.09701546  0.75940437  0.58328276    -0.20800
C1442       C  0.11639100  0.77505776  0.57120078    -0.19300
C1443       C  0.12430429  0.79699713  0.57706837     0.19900
C1444       C  0.11265725  0.80355407  0.59569462     0.02000
C1445       C  0.12081904  0.82601455  0.59953087    -0.14100
C1446       C  0.13962187  0.84122179  0.58531757    -0.11800
C1447       C  0.15112751  0.83464435  0.56717354     0.01500
C1448       C  0.14363549  0.81244307  0.56390149    -0.24000
H1449       H  0.05375579  0.78016331  0.65768045     0.09500
H1450       H  0.08648221  0.80849312  0.63660469     0.13100
H1451       H  0.06019290  0.73222395  0.60881037     0.11800
H1452       H  0.09117811  0.74258134  0.57795325     0.13000
H1453       H  0.12507638  0.76997885  0.55676582     0.12000
H1454       H  0.11270289  0.83233947  0.61274239     0.09100
H1455       H  0.14494869  0.85825536  0.58807345     0.12400
H1456       H  0.15268176  0.80713372  0.55054662     0.14200
C1457       C  0.00934874  0.66041594  0.69913666    -0.01300
C1458       C  0.02191752  0.65308695  0.68484857    -0.09300
C1459       C  0.02537610  0.63700407  0.69725223    -0.18100
C1460       C  0.01564837  0.62728048  0.72392941     0.04300
C1461       C  0.00210654  0.63423107  0.73746002     0.18500
C1462       C  0.99964739  0.65103470  0.72546542    -0.19500
C1463       C  0.99078425  0.62416852  0.76269426    -0.20800
C1464       C  0.99250293  0.60720757  0.77485286    -0.19300
C1465       C  0.00635472  0.60054698  0.76282420     0.19900
C1466       C  0.01853597  0.61075656  0.73757385     0.02000
C1467       C  0.03328812  0.60420808  0.72755011    -0.14100
C1468       C  0.03608621  0.58854934  0.74244051    -0.11800
C1469       C  0.02392170  0.57850348  0.76729257     0.01500
C1470       C  0.00839279  0.58398932  0.77642782    -0.24000
H1471       H  0.02932450  0.66003733  0.66426136     0.09500
H1472       H  0.03529265  0.63213809  0.68521319     0.13100
H1473       H  0.98949406  0.65637598  0.73619630     0.11800
H1474       H  0.98026757  0.62925839  0.77290213     0.13000
H1475       H  0.98334141  0.59960385  0.79425367     0.12000
H1476       H  0.04341257  0.61145353  0.70888366     0.09100
H1477       H  0.04809946  0.58452869  0.73474096     0.12400
H1478       H  0.99804928  0.57561895  0.79462976     0.14200
C1479       C  0.69178167  0.75312678  0.62950880    -0.01300
C1480       C  0.70550527  0.77478555  0.63690430    -0.09300
C1481       C  0.70308751  0.79131727  0.62411594    -0.18100
C1482       C  0.68663065  0.78664954  0.60352612     0.04300
C1483       C  0.67220816  0.76455713  0.59697688     0.18500
C1484       C  0.67506346  0.74812984  0.60965813    -0.19500
C1485       C  0.65504677  0.75897869  0.57774838    -0.20800
C1486       C  0.65181675  0.77487663  0.56489684    -0.19300
C1487       C  0.66605553  0.79678732  0.57026863     0.19900
C1488       C  0.68389440  0.80303759  0.58927933     0.02000
C1489       C  0.69840848  0.82540843  0.59275656    -0.14100
C1490       C  0.69529457  0.84082932  0.57799491    -0.11800
C1491       C  0.67755727  0.83459671  0.55956672     0.01500
C1492       C  0.66274352  0.81250806  0.55631244    -0.24000
H1493       H  0.71848880  0.77904055  0.65227007     0.09500
H1494       H  0.71426916  0.80755810  0.63092318     0.13100
H1495       H  0.66424446  0.73137826  0.60398093     0.11800
H1496       H  0.64393749  0.74216804  0.57274979     0.13000
H1497       H  0.63829509  0.77000816  0.55025528     0.12000
H1498       H  0.71261574  0.83150178  0.60615119     0.09100
H1499       H  0.70707121  0.85779080  0.58063298     0.12400
H1500       H  0.64874349  0.80752422  0.54253766     0.14200
C1501       C  0.64536781  0.65939122  0.69263595    -0.01300
C1502       C  0.63614041  0.63782676  0.68376013    -0.09300
C1503       C  0.61720429  0.62174464  0.69663497    -0.18100
C1504       C  0.60672853  0.62675236  0.71890370     0.04300
C1505       C  0.61592052  0.64875334  0.72744387     0.18500
C1506       C  0.63512951  0.66473909  0.71449425    -0.19500
C1507       C  0.60586045  0.65467518  0.74880811    -0.20800
C1508       C  0.58665108  0.63925276  0.76161101    -0.19300
C1509       C  0.57731452  0.61742490  0.75391569     0.19900
C1510       C  0.58743281  0.61078540  0.73286758     0.02000
C1511       C  0.57793614  0.58841570  0.72700576    -0.14100
C1512       C  0.55938485  0.57332940  0.74163283    -0.11800
C1513       C  0.54932726  0.57989760  0.76220643     0.01500
C1514       C  0.55808712  0.60212081  0.76754392    -0.24000
H1515       H  0.64372254  0.63328375  0.66691448     0.09500
H1516       H  0.61109646  0.60558397  0.68847919     0.13100
H1517       H  0.64212844  0.68141077  0.72148192     0.11800
H1518       H  0.61278790  0.67140548  0.75547018     0.13000
H1519       H  0.57918813  0.64439752  0.77791247     0.12000
H1520       H  0.58478353  0.58196361  0.71182882     0.09100
H1521       H  0.55315748  0.55630482  0.73725820     0.12400
H1522       H  0.55018368  0.60751889  0.78281919     0.14200
C1523       C  0.88160796  0.69549199  0.43003415    -0.01300
C1524       C  0.88795818  0.67979874  0.43316261    -0.09300
C1525       C  0.90698116  0.68253092  0.42039871    -0.18100
C1526       C  0.92038567  0.70118178  0.40384781     0.04300
C1527       C  0.91356967  0.71682318  0.40010078     0.18500
C1528       C  0.89429370  0.71379998  0.41303139    -0.19500
C1529       C  0.92617396  0.73550723  0.38377623    -0.20800
C1530       C  0.94551965  0.73910898  0.37122008    -0.19300
C1531       C  0.95280389  0.72413988  0.37469131     0.19900
C1532       C  0.94033189  0.70494231  0.39106390     0.02000
C1533       C  0.94852437  0.69047502  0.39420447    -0.14100
C1534       C  0.96828446  0.69497262  0.38194052    -0.11800
C1535       C  0.98052314  0.71385724  0.36585104     0.01500
C1536       C  0.97260685  0.72833136  0.36210238    -0.24000
H1537       H  0.87812251  0.66530019  0.44565565     0.09500
H1538       H  0.91073195  0.66973779  0.42400006     0.13100
H1539       H  0.88937270  0.72595398  0.41042924     0.11800
H1540       H  0.92108402  0.74749382  0.38081152     0.13000
H1541       H  0.95492599  0.75379182  0.35883386     0.12000
H1542       H  0.94017320  0.67559390  0.40623521     0.09100
H1543       H  0.97400853  0.68350201  0.38505851     0.12400
H1544       H  0.98204630  0.74306052  0.34979380     0.14200
C1545       C  0.87570139  0.68921036  0.49396650    -0.01300
C1546       C  0.87188763  0.67056883  0.50901535    -0.09300
C1547       C  0.88695664  0.67114878  0.52895323    -0.18100
C1548       C  0.90619710  0.69068231  0.53499248     0.04300
C1549       C  0.90978700  0.70962637  0.51982779     0.18500
C1550       C  0.89478864  0.70863072  0.49918797    -0.19500
C1551       C  0.92799577  0.72957783  0.52595917    -0.20800
C1552       C  0.94256845  0.73126451  0.54721405    -0.19300
C1553       C  0.93962513  0.71293581  0.56235210     0.19900
C1554       C  0.92167976  0.69227547  0.55606526     0.02000
C1555       C  0.92004857  0.67419373  0.57123523    -0.14100
C1556       C  0.93522499  0.67667545  0.59232058    -0.11800
C1557       C  0.95237994  0.69718615  0.59911562     0.01500
C1558       C  0.95454713  0.71521293  0.58386645    -0.24000
H1559       H  0.85702611  0.65550258  0.50546732     0.09500
H1560       H  0.88278033  0.65619373  0.53990242     0.13100
H1561       H  0.89751452  0.72317144  0.48792360     0.11800
H1562       H  0.93077236  0.74408969  0.51460647     0.13000
H1563       H  0.95628274  0.74703053  0.55180172     0.12000
H1564       H  0.90729824  0.65791696  0.56718775     0.09100
H1565       H  0.93332747  0.66249161  0.60366243     0.12400
H1566       H  0.96792826  0.73113564  0.58875824     0.14200
C1567       C  0.81012810  0.69327055  0.42354672    -0.01300
C1568       C  0.81650023  0.71158314  0.40619560    -0.09300
C1569       C  0.80118117  0.71485445  0.39136651    -0.18100
C1570       C  0.77877441  0.69982171  0.39349576     0.04300
C1571       C  0.77244723  0.68089576  0.41040722     0.18500
C1572       C  0.78809134  0.67767937  0.42486656    -0.19500
C1573       C  0.75050433  0.66552338  0.41333604    -0.20800
C1574       C  0.73460586  0.66870818  0.40033539    -0.19300
C1575       C  0.74023078  0.68733880  0.38399410     0.19900
C1576       C  0.76240750  0.70304815  0.37997251     0.02000
C1577       C  0.76716318  0.72145221  0.36298676    -0.14100
C1578       C  0.75061773  0.72435865  0.35121394    -0.11800
C1579       C  0.72881554  0.70918095  0.35601594     0.01500
C1580       C  0.72374344  0.69053958  0.37210768    -0.24000
H1581       H  0.83342510  0.72384174  0.40486376     0.09500
H1582       H  0.80738636  0.72952826  0.37891836     0.13100
H1583       H  0.78307174  0.66329769  0.43794017     0.11800
H1584       H  0.74556489  0.65104731  0.42615802     0.13000
H1585       H  0.71776120  0.65662099  0.40337403     0.12000
H1586       H  0.78347812  0.73402110  0.35864626     0.09100
H1587       H  0.75495469  0.73889983  0.33885661     0.12400
H1588       H  0.70690618  0.67863309  0.37576579     0.14200
C1589       C  0.80511155  0.68677119  0.48812752    -0.01300
C1590       C  0.79998098  0.70337544  0.48516072    -0.09300
C1591       C  0.78416861  0.70394567  0.50252250    -0.18100
C1592       C  0.77347439  0.68826942  0.52436029     0.04300
C1593       C  0.77844387  0.67122353  0.52691390     0.18500
C1594       C  0.79389214  0.67048505  0.50866027    -0.19500
C1595       C  0.76860268  0.65546214  0.54840830    -0.20800
C1596       C  0.75461764  0.65677399  0.56831688    -0.19300
C1597       C  0.75001090  0.67379368  0.56711751     0.19900
C1598       C  0.75889562  0.68947607  0.54465266     0.02000
C1599       C  0.75345487  0.70614861  0.54421827    -0.14100
C1600       C  0.74099417  0.70798534  0.56619713    -0.11800
C1601       C  0.73324601  0.69315643  0.58908256     0.01500
C1602       C  0.73721580  0.67568347  0.58890892    -0.24000
H1603       H  0.80871658  0.71640302  0.46992217     0.09500
H1604       H  0.78131879  0.71733755  0.49901753     0.13100
H1605       H  0.79777936  0.65758132  0.51107761     0.11800
H1606       H  0.77223550  0.64236808  0.55036054     0.13000
H1607       H  0.74775890  0.64465768  0.58520957     0.12000
H1608       H  0.75896617  0.71832280  0.52757313     0.09100
H1609       H  0.73782040  0.72142892  0.56558675     0.12400
H1610       H  0.73111140  0.66402833  0.60642548     0.14200
C1611       C  0.88868869  0.71828255  0.90234611    -0.01300
C1612       C  0.88184814  0.70030456  0.92054238    -0.09300
C1613       C  0.89682798  0.69698691  0.93629312    -0.18100
C1614       C  0.91934669  0.71167946  0.93439968     0.04300
C1615       C  0.92614757  0.73020787  0.91647914     0.18500
C1616       C  0.91088229  0.73336671  0.90086610    -0.19500
C1617       C  0.94819570  0.74533717  0.91386390    -0.20800
C1618       C  0.96374858  0.74216152  0.92792211    -0.19300
C1619       C  0.95768943  0.72379822  0.94505126     0.19900
C1620       C  0.93538869  0.70848127  0.94906405     0.02000
C1621       C  0.93023005  0.69045389  0.96709806    -0.14100
C1622       C  0.94650385  0.68732803  0.97950223    -0.11800
C1623       C  0.96843029  0.70195804  0.97438784     0.01500
C1624       C  0.97387230  0.72040657  0.95760457    -0.24000
H1625       H  0.86479899  0.68845915  0.92209929     0.09500
H1626       H  0.89029184  0.68260741  0.94943512     0.13100
H1627       H  0.91629491  0.74753994  0.88725874     0.11800
H1628       H  0.95348915  0.75956883  0.90042660     0.13000
H1629       H  0.98069687  0.75401267  0.92498763     0.12000
H1630       H  0.91376771  0.67829087  0.97166785     0.09100
H1631       H  0.94186107  0.67300209  0.99248520     0.12400
H1632       H  0.99080101  0.73195756  0.95373954     0.14200
C1633       C  0.89268861  0.72374134  0.83769038    -0.01300
C1634       C  0.89334533  0.70436816  0.83686352    -0.09300
C1635       C  0.90687947  0.70164775  0.81734988    -0.18100
C1636       C  0.92019319  0.71833322  0.79786689     0.04300
C1637       C  0.92036310  0.73840154  0.80007005     0.18500
C1638       C  0.90657491  0.74084327  0.81966305    -0.19500
C1639       C  0.93388580  0.75575378  0.78219108    -0.20800
C1640       C  0.94711470  0.75358436  0.76185652    -0.19300
C1641       C  0.94677436  0.73384367  0.75836984     0.19900
C1642       C  0.93312192  0.71581645  0.77606996     0.02000
C1643       C  0.93256016  0.69594293  0.77053326    -0.14100
C1644       C  0.94509485  0.69415435  0.74849530    -0.11800
C1645       C  0.95892682  0.71213085  0.73168131     0.01500
C1646       C  0.95976547  0.73195368  0.73687205    -0.24000
H1647       H  0.88267188  0.69094684  0.85058754     0.09500
H1648       H  0.90637004  0.68622620  0.81777154     0.13100
H1649       H  0.90615140  0.75590419  0.82037719     0.11800
H1650       H  0.93418244  0.77112508  0.78387430     0.13000
H1651       H  0.95738888  0.76734812  0.74835743     0.12000
H1652       H  0.92226708  0.68139383  0.78246103     0.09100
H1653       H  0.94408515  0.67862744  0.74473326     0.12400
H1654       H  0.97015574  0.74583750  0.72360467     0.14200
C1655       C  0.72028602  0.70284752  0.96214442    -0.01300
C1656       C  0.73035987  0.71935008  0.94160193    -0.09300
C1657       C  0.75006950  0.72378617  0.92898527    -0.18100
C1658       C  0.76029878  0.71160659  0.93631720     0.04300
C1659       C  0.74976207  0.69459635  0.95676613     0.18500
C1660       C  0.73015035  0.69058253  0.96966153    -0.19500
C1661       C  0.75870069  0.68147450  0.96394700    -0.20800
C1662       C  0.77765880  0.68454975  0.95079244    -0.19300
C1663       C  0.78850040  0.70118918  0.93065644     0.19900
C1664       C  0.78031367  0.71534226  0.92369755     0.02000
C1665       C  0.79262119  0.73266386  0.90456871    -0.14100
C1666       C  0.81171633  0.73526519  0.89205374    -0.11800
C1667       C  0.81897252  0.72042250  0.89740939     0.01500
C1668       C  0.80743108  0.70365552  0.91727892    -0.24000
H1669       H  0.72296275  0.72891465  0.93521908     0.09500
H1670       H  0.75669050  0.73657870  0.91315089     0.13100
H1671       H  0.72232617  0.67756374  0.98523611     0.11800
H1672       H  0.75076273  0.66847654  0.97950658     0.13000
H1673       H  0.78391477  0.67384160  0.95646370     0.12000
H1674       H  0.78805001  0.74464137  0.89911924     0.09100
H1675       H  0.82077323  0.74891099  0.87781627     0.12400
H1676       H  0.81297334  0.69220460  0.92195626     0.14200
C1677       C  0.82512886  0.72695284  0.83256927    -0.01300
C1678       C  0.83106982  0.74408892  0.81308707    -0.09300
C1679       C  0.81633372  0.74369585  0.79270147    -0.18100
C1680       C  0.79504957  0.72593348  0.79099066     0.04300
C1681       C  0.78891054  0.70895858  0.81152106     0.18500
C1682       C  0.80392279  0.70955265  0.83181948    -0.19500
C1683       C  0.76795768  0.69118961  0.81125333    -0.20800
C1684       C  0.75308118  0.68951804  0.79050191    -0.19300
C1685       C  0.75882100  0.70549562  0.76931439     0.19900
C1686       C  0.77979023  0.72408750  0.76935106     0.02000
C1687       C  0.78465034  0.73965193  0.74727233    -0.14100
C1688       C  0.76951294  0.73656661  0.72577413    -0.11800
C1689       C  0.74906163  0.71798912  0.72560028     0.01500
C1690       C  0.74377009  0.70269293  0.74770893    -0.24000
H1691       H  0.84737212  0.75774177  0.81338307     0.09500
H1692       H  0.82217729  0.75739489  0.77833633     0.13100
H1693       H  0.79928645  0.69610409  0.84658417     0.11800
H1694       H  0.76311304  0.67830878  0.82700607     0.13000
H1695       H  0.73707445  0.67539248  0.79069607     0.12000
H1696       H  0.80012890  0.75421325  0.74575783     0.09100
H1697       H  0.77396039  0.74864999  0.70897133     0.12400
H1698       H  0.72794644  0.68828911  0.74785293     0.14200
C1699       C  0.69595260  0.91582552  0.10257842    -0.01300
C1700       C  0.71219893  0.93746534  0.10521936    -0.09300
C1701       C  0.71053785  0.95397437  0.09103833    -0.18100
C1702       C  0.69249953  0.94935361  0.07337429     0.04300
C1703       C  0.67614077  0.92731843  0.07053709     0.18500
C1704       C  0.67802093  0.91086879  0.08502422    -0.19500
C1705       C  0.65793654  0.92182202  0.05335366    -0.20800
C1706       C  0.65552183  0.93771856  0.03897668    -0.19300
C1707       C  0.67118565  0.95956317  0.04151739     0.19900
C1708       C  0.68997633  0.96574321  0.05864453     0.02000
C1709       C  0.70520597  0.98808096  0.06057437    -0.14100
C1710       C  0.70145889  0.00357471  0.04708648    -0.11800
C1711       C  0.68269950  0.99739237  0.03079168     0.01500
C1712       C  0.66788803  0.97531726  0.02752809    -0.24000
H1713       H  0.72638050  0.94163879  0.11827150     0.09500
H1714       H  0.72367101  0.97017087  0.09431750     0.13100
H1715       H  0.66536419  0.89415211  0.08294551     0.11800
H1716       H  0.64540804  0.90508330  0.05109040     0.13000
H1717       H  0.64115644  0.93289515  0.02599355     0.12000
H1718       H  0.71998704  0.99414798  0.07276243     0.09100
H1719       H  0.71324825  0.02053715  0.04963887     0.12400
H1720       H  0.65331558  0.97039886  0.01493857     0.14200
C1721       C  0.82654045  0.16365553  0.89691866    -0.01300
C1722       C  0.81697530  0.17073130  0.91757213    -0.09300
C1723       C  0.79832596  0.15606379  0.93234528    -0.18100
C1724       C  0.78816108  0.13367843  0.92636486     0.04300
C1725       C  0.79770755  0.12655644  0.90513249     0.18500
C1726       C  0.81720672  0.14137977  0.89166978    -0.19500
C1727       C  0.78735803  0.10480826  0.89679661    -0.20800
C1728       C  0.76745794  0.09003720  0.90872265    -0.19300
C1729       C  0.75792235  0.09644315  0.93025286     0.19900
C1730       C  0.76850563  0.11822761  0.94001750     0.02000
C1731       C  0.75899703  0.12358345  0.96312468    -0.14100
C1732       C  0.73935916  0.10819530  0.97518420    -0.11800
C1733       C  0.72843623  0.08702410  0.96460180     0.01500
C1734       C  0.73788885  0.08119527  0.94221022    -0.24000
H1735       H  0.82363970  0.18783443  0.92183504     0.09500
H1736       H  0.79173486  0.16286886  0.94739851     0.13100
H1737       H  0.82474231  0.13560098  0.87634887     0.11800
H1738       H  0.79440574  0.09930875  0.88034884     0.13000
H1739       H  0.75958215  0.07343596  0.90127519     0.12000
H1740       H  0.76649851  0.13946366  0.97265901     0.09100
H1741       H  0.73256607  0.11300326  0.99275242     0.12400
H1742       H  0.72971174  0.06473285  0.93418232     0.14200
C1743       C  0.35788646  0.08790990  0.96187560    -0.01300
C1744       C  0.34706083  0.09672379  0.97719266    -0.09300
C1745       C  0.34345572  0.11261065  0.96466413    -0.18100
C1746       C  0.35108417  0.12050847  0.93653937     0.04300
C1747       C  0.36282150  0.11204868  0.92164548     0.18500
C1748       C  0.36564260  0.09558675  0.93409368    -0.19500
C1749       C  0.37196408  0.12028138  0.89459250    -0.20800
C1750       C  0.37013790  0.13714463  0.88222516    -0.19300
C1751       C  0.35822753  0.14544941  0.89598527     0.19900
C1752       C  0.34787255  0.13674568  0.92282523     0.02000
C1753       C  0.33448619  0.14442535  0.93445609    -0.14100
C1754       C  0.33146612  0.15997706  0.91987189    -0.11800
C1755       C  0.34226011  0.16902885  0.89381570     0.01500
C1756       C  0.35633215  0.16220689  0.88273154    -0.24000
H1757       H  0.34115506  0.09114079  0.99882713     0.09500
H1758       H  0.33511758  0.11876686  0.97774408     0.13100
H1759       H  0.37443390  0.08910134  0.92238628     0.11800
H1760       H  0.38097853  0.11392925  0.88317166     0.13000
H1761       H  0.37771518  0.14343446  0.86148205     0.12000
H1762       H  0.32550490  0.13813491  0.95420847     0.09100
H1763       H  0.32038591  0.16477584  0.92894518     0.12400
H1764       H  0.36570427  0.16971484  0.86350181     0.14200
C1765       C  0.30917461  0.99295917  0.02276276    -0.01300
C1766       C  0.30216169  0.97135833  0.01567761    -0.09300
C1767       C  0.28326373  0.95463948  0.02782988    -0.18100
C1768       C  0.27070024  0.95905324  0.04759273     0.04300
C1769       C  0.27727177  0.98108947  0.05341005     0.18500
C1770       C  0.29637188  0.99772340  0.04113994    -0.19500
C1771       C  0.26500798  0.98640697  0.07195003    -0.20800
C1772       C  0.24660942  0.97028962  0.08548825    -0.19300
C1773       C  0.24022025  0.94845300  0.08123688     0.19900
C1774       C  0.25212020  0.94247457  0.06216773     0.02000
C1775       C  0.24528062  0.92019614  0.05926328    -0.14100
C1776       C  0.22772925  0.90463690  0.07508489    -0.11800
C1777       C  0.21628693  0.91063436  0.09414459     0.01500
C1778       C  0.22231365  0.93256264  0.09657385    -0.24000
H1779       H  0.31166044  0.96729023  0.00127400     0.09500
H1780       H  0.27905275  0.93844336  0.02153470     0.13100
H1781       H  0.30153296  0.01443275  0.04643859     0.11800
H1782       H  0.26981269  0.00316916  0.07625824     0.13000
H1783       H  0.23760075  0.97496169  0.09994944     0.12000
H1784       H  0.25350235  0.91429097  0.04555160     0.09100
H1785       H  0.22342331  0.88779498  0.07300158     0.12400
H1786       H  0.21334062  0.93729230  0.11102678     0.14200
C1787       C  0.63865851  0.03617330  0.29819727    -0.01300
C1788       C  0.61681169  0.02125067  0.30319897    -0.09300
C1789       C  0.60041018  0.02397927  0.29052328    -0.18100
C1790       C  0.60541725  0.04200088  0.27257605     0.04300
C1791       C  0.62765336  0.05753229  0.26857913     0.18500
C1792       C  0.64395477  0.05437635  0.28106466    -0.19500
C1793       C  0.63354170  0.07607657  0.25195117    -0.20800
C1794       C  0.61783571  0.07946579  0.23885032    -0.19300
C1795       C  0.59585757  0.06422632  0.24160959     0.19900
C1796       C  0.58926235  0.04519229  0.25838908     0.02000
C1797       C  0.56683902  0.03009123  0.25978536    -0.14100
C1798       C  0.55173249  0.03373705  0.24499726    -0.11800
C1799       C  0.55837708  0.05250395  0.22846007     0.01500
C1800       C  0.58045245  0.06783027  0.22730439    -0.24000
H1801       H  0.61235319  0.00709818  0.31648401     0.09500
H1802       H  0.58400846  0.01173541  0.29519558     0.13100
H1803       H  0.66084388  0.06613462  0.27740658     0.11800
H1804       H  0.65043999  0.08804807  0.24901105     0.13000
H1805       H  0.62295272  0.09399066  0.22607313     0.12000
H1806       H  0.56049831  0.01514880  0.27167255     0.09100
H1807       H  0.53474589  0.02161699  0.24607785     0.12400
H1808       H  0.58567456  0.08254015  0.21488996     0.14200
C1809       C  0.39126679  0.03442696  0.29980699    -0.01300
C1810       C  0.40254718  0.05313882  0.28301077    -0.09300
C1811       C  0.42230560  0.05821689  0.27001607    -0.18100
C1812       C  0.43133515  0.04442420  0.27295914     0.04300
C1813       C  0.41994982  0.02557663  0.29036066     0.18500
C1814       C  0.40029177  0.02092026  0.30383061    -0.19500
C1815       C  0.42798920  0.01121111  0.29368738    -0.20800
C1816       C  0.44682081  0.01484608  0.27958379    -0.19300
C1817       C  0.45824434  0.03304344  0.26196048     0.19900
C1818       C  0.45090381  0.04832131  0.25874197     0.02000
C1819       C  0.46334518  0.06663884  0.24112373    -0.14100
C1820       C  0.48181884  0.06926884  0.22668592    -0.11800
C1821       C  0.48849034  0.05372893  0.22900690     0.01500
C1822       C  0.47681297  0.03585854  0.24717415    -0.24000
H1823       H  0.39597941  0.06390302  0.27973444     0.09500
H1824       H  0.42987612  0.07282937  0.25732925     0.13100
H1825       H  0.39163090  0.00634880  0.31670391     0.11800
H1826       H  0.41944356  0.99684033  0.30693749     0.13000
H1827       H  0.45238954  0.00320482  0.28228271     0.12000
H1828       H  0.45922280  0.07922352  0.23800465     0.09100
H1829       H  0.49093124  0.08354767  0.21349238     0.12400
H1830       H  0.48192137  0.02381199  0.24927070     0.14200
C1831       C  0.41224659  0.05154008  0.06521283    -0.01300
C1832       C  0.43043208  0.07190570  0.06945592    -0.09300
C1833       C  0.44619350  0.07479218  0.08979551    -0.18100
C1834       C  0.44418694  0.05727724  0.10671871     0.04300
C1835       C  0.42513942  0.03688913  0.10326918     0.18500
C1836       C  0.40954534  0.03418555  0.08253807    -0.19500
C1837       C  0.42190650  0.01919884  0.12019644    -0.20800
C1838       C  0.43740578  0.02116379  0.14013884    -0.19300
C1839       C  0.45671557  0.04074668  0.14327354     0.19900
C1840       C  0.46044844  0.05912589  0.12661084     0.02000
C1841       C  0.48058770  0.07829679  0.12993736    -0.14100
C1842       C  0.49642030  0.07900106  0.14855710    -0.11800
C1843       C  0.49258375  0.06085692  0.16485024     0.01500
C1844       C  0.47261178  0.04186457  0.16238468    -0.24000
H1845       H  0.43277868  0.08559501  0.05646916     0.09500
H1846       H  0.45979724  0.09089855  0.09166108     0.13100
H1847       H  0.39536858  0.01841496  0.07962829     0.11800
H1848       H  0.40734036  0.00367284  0.11784966     0.13000
H1849       H  0.43446591  0.00710616  0.15277278     0.12000
H1850       H  0.48483811  0.09283636  0.11787396     0.09100
H1851       H  0.51187727  0.09374524  0.15006539     0.12400
H1852       H  0.46979368  0.02767031  0.17463031     0.14200
C1853       C  0.63553640  0.05572197  0.06394364    -0.01300
C1854       C  0.63416502  0.07475733  0.06461929    -0.09300
C1855       C  0.62094824  0.07740294  0.08491944    -0.18100
C1856       C  0.60859506  0.06094997  0.10526862     0.04300
C1857       C  0.61053771  0.04194347  0.10480778     0.18500
C1858       C  0.62387185  0.03956046  0.08440566    -0.19500
C1859       C  0.59880594  0.02511404  0.12433493    -0.20800
C1860       C  0.58464287  0.02639827  0.14388593    -0.19300
C1861       C  0.58185428  0.04456164  0.14450375     0.19900
C1862       C  0.59401958  0.06231393  0.12558371     0.02000
C1863       C  0.59059474  0.08031173  0.12745862    -0.14100
C1864       C  0.57519604  0.08024357  0.14649458    -0.11800
C1865       C  0.56285287  0.06241329  0.16444580     0.01500
C1866       C  0.56648398  0.04474682  0.16348978    -0.24000
H1867       H  0.64300240  0.08748959  0.04900926     0.09500
H1868       H  0.62047675  0.09233277  0.08388469     0.13100
H1869       H  0.62484988  0.02479486  0.08414674     0.11800
H1870       H  0.60032755  0.01065747  0.12417703     0.13000
H1871       H  0.57553977  0.01289800  0.15838355     0.12000
H1872       H  0.59931097  0.09450888  0.11418296     0.09100
H1873       H  0.57266451  0.09409930  0.14692630     0.12400
H1874       H  0.55675603  0.03073866  0.17694428     0.14200
C1875       C  0.54487205  0.02137552  0.76916388    -0.01300
C1876       C  0.55197970  0.00631522  0.77326815    -0.09300
C1877       C  0.57081477  0.00905312  0.75983831    -0.18100
C1878       C  0.58304955  0.02693066  0.74143905     0.04300
C1879       C  0.57510034  0.04152838  0.73625741     0.18500
C1880       C  0.55628798  0.03869342  0.75017625    -0.19500
C1881       C  0.58611372  0.05906567  0.71748960    -0.20800
C1882       C  0.60507003  0.06263066  0.70391242    -0.19300
C1883       C  0.61372334  0.04899192  0.70920404     0.19900
C1884       C  0.60290345  0.03096538  0.72812517     0.02000
C1885       C  0.61273414  0.01812185  0.73339796    -0.14100
C1886       C  0.63256538  0.02318030  0.72075806    -0.11800
C1887       C  0.64312279  0.04094909  0.70218328     0.01500
C1888       C  0.63344004  0.05359620  0.69614743    -0.24000
H1889       H  0.54300269  0.99242943  0.78716801     0.09500
H1890       H  0.57531832  0.99688479  0.76423273     0.13100
H1891       H  0.55078202  0.05032976  0.74678862     0.11800
H1892       H  0.58005248  0.07016221  0.71333627     0.13000
H1893       H  0.61323690  0.07640113  0.68955677     0.12000
H1894       H  0.60576498  0.00434476  0.74766170     0.09100
H1895       H  0.63974488  0.01315745  0.72570403     0.12400
H1896       H  0.64159193  0.06746210  0.68192020     0.14200
C1897       C  0.39564373  0.04233831  0.70294310    -0.01300
C1898       C  0.38920953  0.02581949  0.72344773    -0.09300
C1899       C  0.40420930  0.02088463  0.73576618    -0.18100
C1900       C  0.42640340  0.03261904  0.72825244     0.04300
C1901       C  0.43299448  0.04973675  0.70789317     0.18500
C1902       C  0.41757243  0.05416698  0.69506494    -0.19500
C1903       C  0.45497026  0.06257162  0.70094984    -0.20800
C1904       C  0.47059819  0.05910071  0.71432990    -0.19300
C1905       C  0.46459654  0.04231647  0.73438186     0.19900
C1906       C  0.44234194  0.02840393  0.74091244     0.02000
C1907       C  0.43700416  0.01087284  0.75988600    -0.14100
C1908       C  0.45310524  0.00811795  0.77322094    -0.11800
C1909       C  0.47504677  0.02279384  0.76847780     0.01500
C1910       C  0.48069918  0.03950732  0.74831282    -0.24000
H1911       H  0.37239680  0.01657836  0.73002066     0.09500
H1912       H  0.39797858  0.00814364  0.75165571     0.13100
H1913       H  0.42272984  0.06722381  0.67952649     0.11800
H1914       H  0.46015621  0.07569076  0.68552326     0.13000
H1915       H  0.48750528  0.06964306  0.70898443     0.12000
H1916       H  0.42052053  0.99890756  0.76474883     0.09100
H1917       H  0.44835971  0.99450912  0.78766021     0.12400
H1918       H  0.49766884  0.05068839  0.74406239     0.14200
C1919       C  0.54242824  0.01829929  0.83325972    -0.01300
C1920       C  0.53989546  0.00010352  0.84822595    -0.09300
C1921       C  0.55620440  0.00153122  0.86651962    -0.18100
C1922       C  0.57535807  0.02151189  0.87098415     0.04300
C1923       C  0.57777478  0.03988601  0.85544595     0.18500
C1924       C  0.56150370  0.03804099  0.83652450    -0.19500
C1925       C  0.59609224  0.06015037  0.85954421    -0.20800
C1926       C  0.61186445  0.06275735  0.87939232    -0.19300
C1927       C  0.60987078  0.04510529  0.89531333     0.19900
C1928       C  0.59183509  0.02412113  0.89097006     0.02000
C1929       C  0.59092831  0.00680937  0.90726919    -0.14100
C1930       C  0.60682216  0.01037258  0.92772626    -0.11800
C1931       C  0.62412782  0.03119827  0.93252979     0.01500
C1932       C  0.62569378  0.04842644  0.91594282    -0.24000
H1933       H  0.52513976  0.98475395  0.84585895     0.09500
H1934       H  0.55306519  0.98686018  0.87742478     0.13100
H1935       H  0.56327914  0.05215236  0.82505213     0.11800
H1936       H  0.59800988  0.07418443  0.84776271     0.13000
H1937       H  0.62564440  0.07876293  0.88250592     0.12000
H1938       H  0.57808209  0.99035899  0.90488174     0.09100
H1939       H  0.60537296  0.99678353  0.94014581     0.12400
H1940       H  0.63913292  0.06459799  0.91939474     0.14200
C1941       C  0.47452275  0.02073882  0.83292008    -0.01300
C1942       C  0.47540097  0.04079667  0.83468238    -0.09300
C1943       C  0.46150297  0.04373664  0.85313269    -0.18100
C1944       C  0.44614694  0.02651624  0.87035739     0.04300
C1945       C  0.44458448  0.00587199  0.86720930     0.18500
C1946       C  0.45900144  0.00327627  0.84900583    -0.19500
C1947       C  0.42880266  0.98802689  0.88247053    -0.20800
C1948       C  0.41467322  0.99028236  0.90115605    -0.19300
C1949       C  0.41645803  0.01057636  0.90578536     0.19900
C1950       C  0.43241193  0.02905099  0.89070071     0.02000
C1951       C  0.43441799  0.04937736  0.89737675    -0.14100
C1952       C  0.42125893  0.05127152  0.91821571    -0.11800
C1953       C  0.40539937  0.03302169  0.93270031     0.01500
C1954       C  0.40280566  0.01264269  0.92606112    -0.24000
H1955       H  0.48726618  0.05438650  0.82217698     0.09500
H1956       H  0.46313315  0.05965169  0.85335093     0.13100
H1957       H  0.45823773  0.98768042  0.84733165     0.11800
H1958       H  0.42737057  0.97220374  0.87992788     0.13000
H1959       H  0.40261920  0.97614283  0.91263040     0.12000
H1960       H  0.44645075  0.06423134  0.88752335     0.09100
H1961       H  0.42357010  0.06718655  0.92310817     0.12400
H1962       H  0.39073070  0.99849415  0.93752917     0.14200
loop_ 
_geom_bond_atom_site_label_1 
_geom_bond_atom_site_label_2 
_geom_bond_distance 
_geom_bond_site_symmetry_2 
_ccdc_geom_bond_type 
C1            C2   1.417       .  A
C1            C6   1.407       .  A
C1         C1909   1.489       .  S
C2            C3   1.400       .  A
C2         C1941   1.479       .  S
C3            C4   1.399       .  A
C3            H8   1.084       .  S
C4            C5   1.414       .  A
C4         C1919   1.478       .  S
C5            C6   1.408       .  A
C5         C1875   1.486       .  S
C6            H7   1.083       .  S
C9           C10   1.421       .  A
C9           C14   1.410       .  A
C9         C1799   1.490       .  S
C10          C11   1.404       .  A
C10        C1865   1.492       .  S
C11          C12   1.403       .  A
C11          H16   1.085       .  S
C12          C13   1.416       .  A
C12        C1843   1.484       .  S
C13          C14   1.408       .  A
C13        C1821   1.494       .  S
C14          H15   1.084       .  S
In17         O19   2.241       .  S
In17         O20   2.259   1_556  S
In17         O28   2.244   1_556  S
In17         O22   2.254       .  S
In17         O24   2.256       .  S
In17         O25   2.263   1_556  S
In17         O26   2.229       .  S
In17         O29   2.251   1_556  S
C18        C1953   1.475       .  S
C18          O24   1.264       .  A
C18          O26   1.262       .  A
O19          C27   1.259       .  A
O20          C27   1.261   1_554  A
C21        C1765   1.480   1_545  S
C21          O28   1.260       .  A
C21          O22   1.262   1_554  A
C23        C1831   1.480       .  S
C23          O25   1.259       .  A
C23          O29   1.257       .  A
C27        C1743   1.474       .  S
In30         O32   2.243       .  S
In30         O33   2.260       .  S
In30         O41   2.252       .  S
In30         O35   2.244       .  S
In30         O37   2.280   1_556  S
In30         O38   2.250       .  S
In30         O39   2.252   1_556  S
In30         O42   2.248   1_556  S
C31        C1853   1.485       .  S
C31          O37   1.260       .  A
C31          O39   1.258       .  A
O32          C40   1.258       .  A
O33          C40   1.260       .  A
C34        C1733   1.480       .  S
C34          O41   1.262       .  A
C34          O35   1.263       .  A
C36        C1711   1.481   1_545  S
C36          O38   1.263   1_554  A
C36          O42   1.264       .  A
C40        C1931   1.478       .  S
C43          C44   1.422       .  A
C43          C48   1.403       .  A
C43        C1677   1.491       .  S
C44          C45   1.414       .  A
C44        C1667   1.499       .  S
C45          C46   1.412       .  A
C45          H50   1.083       .  S
C46          C47   1.416       .  A
C46        C1611   1.495       .  S
C47          C48   1.402       .  A
C47        C1633   1.486       .  S
C48          H49   1.084       .  S
C51          C52   1.420       .  A
C51          C56   1.410       .  A
C51        C1567   1.491       .  S
C52          C53   1.405       .  A
C52        C1589   1.490       .  S
C53          C54   1.400       .  A
C53          H58   1.085       .  S
C54          C55   1.415       .  A
C54        C1545   1.484       .  S
C55          C56   1.408       .  A
C55        C1523   1.488       .  S
C56          H57   1.084       .  S
In59         O61   2.242       .  S
In59         O62   2.249       .  S
In59         O70   2.246       .  S
In59         O64   2.250       .  S
In59         O66   2.244       .  S
In59         O67   2.275       .  S
In59         O68   2.273       .  S
In59         O71   2.249       .  S
C60        C1601   1.479       .  S
C60          O66   1.255       .  A
C60          O68   1.260       .  A
O61          C69   1.263       .  A
O62          C69   1.264       .  A
C63        C1501   1.481       .  S
C63          O70   1.262       .  A
C63          O64   1.264       .  A
C65        C1689   1.483       .  S
C65          O67   1.260       .  A
C65          O71   1.256       .  A
C69        C1479   1.480       .  S
In72         O74   2.240       .  S
In72         O75   2.264       .  S
In72         O83   2.263   1_655  S
In72         O77   2.244   1_655  S
In72         O79   2.257       .  S
In72         O80   2.261   1_655  S
In72         O81   2.248       .  S
In72         O84   2.242   1_655  S
C73        C1645   1.481       .  S
C73          O79   1.264       .  A
C73          O81   1.262       .  A
O74          C82   1.258       .  A
O75          C82   1.261       .  A
C76        C1435   1.482       .  S
C76          O83   1.263       .  A
C76          O77   1.260       .  A
C78        C1457   1.474       .  S
C78          O80   1.261       .  A
C78          O84   1.260       .  A
C82        C1557   1.480       .  S
C85          C86   1.420       .  A
C85          C90   1.408       .  A
C85        C1403   1.488       .  S
C86          C87   1.405       .  A
C86        C1413   1.490       .  S
C87          C88   1.404       .  A
C87          H92   1.084       .  S
C88          C89   1.414       .  A
C88        C1381   1.484       .  S
C89          C90   1.405       .  A
C89        C1347   1.486       .  S
C90          H91   1.084       .  S
C93          C94   1.414       .  A
C93          C98   1.396       .  A
C93        C1325   1.476       .  S
C94          C95   1.411       .  A
C94        C1271   1.492       .  S
C95          C96   1.413       .  A
C95         H100   1.083       .  S
C96          C97   1.418       .  A
C96        C1293   1.496       .  S
C97          C98   1.396       .  A
C97        C1303   1.475       .  S
C98          H99   1.085       .  S
In101       O103   2.256       .  S
In101       O104   2.263       .  S
In101       O112   2.239       .  S
In101       O106   2.264   1_455  S
In101       O108   2.287       .  S
In101       O109   2.270       .  S
In101       O110   2.244       .  S
In101       O113   2.233       .  S
C102       C1425   1.485       .  S
C102        O108   1.260       .  A
C102        O110   1.257       .  A
O103        C111   1.263       .  A
O104        C111   1.264       .  A
C105       C1249   1.477       .  S
C105        O112   1.261   1_655  A
C105        O106   1.265       .  A
C107       C1337   1.478       .  S
C107        O109   1.263       .  A
C107        O113   1.259       .  A
C111       C1227   1.489       .  S
In114       O116   2.246       .  S
In114       O117   2.261       .  S
In114       O125   2.241       .  S
In114       O119   2.247       .  S
In114       O121   2.267       .  S
In114       O122   2.242       .  S
In114       O123   2.223       .  S
In114       O126   2.251       .  S
C115       C1315   1.476       .  S
C115        O121   1.263       .  A
C115        O123   1.257       .  A
O116        C124   1.260       .  A
O117        C124   1.262       .  A
C118       C1193   1.480       .  S
C118        O125   1.263       .  A
C118        O119   1.264       .  A
C120       C1171   1.478       .  S
C120        O122   1.263       .  A
C120        O126   1.262       .  A
C124       C1369   1.479       .  S
C127        C128   1.418       .  A
C127        C132   1.404       .  A
C127       C1149   1.487       .  S
C128        C129   1.408       .  A
C128       C1721   1.492       .  S
C129        C130   1.407       .  A
C129        H134   1.084       .  S
C130        C131   1.416       .  A
C130       C1105   1.490       .  S
C131        C132   1.405       .  A
C131       C1127   1.485       .  S
C132        H133   1.084       .  S
C135        C136   1.422       .  A
C135        C140   1.409       .  A
C135       C1237   1.500       .  S
C136        C137   1.404       .  A
C136       C1095   1.482       .  S
C137        C138   1.400       .  A
C137        H142   1.085       .  S
C138        C139   1.416       .  A
C138       C1061   1.486       .  S
C139        C140   1.407       .  A
C139       C1051   1.489       .  S
C140        H141   1.083       .  S
In143       O145   2.259       .  S
In143       O146   2.269       .  S
In143       O154   2.238       .  S
In143       O148   2.251       .  S
In143       O150   2.271       .  S
In143       O151   2.247       .  S
In143       O152   2.237       .  S
In143       O155   2.248       .  S
C144       C1073   1.479       .  S
C144        O150   1.261       .  A
C144        O152   1.257       .  A
O145        C153   1.258       .  A
O146        C153   1.260       .  A
C147       C1887   1.478       .  S
C147        O154   1.262       .  A
C147        O148   1.263       .  A
C149       C1029   1.481   1_545  S
C149        O151   1.264       .  A
C149        O155   1.263       .  A
C153       C1161   1.484       .  S
In156       O158   2.257   1_655  S
In156       O159   2.248   1_655  S
In156       O167   2.249   1_655  S
In156       O161   2.245       .  S
In156       O163   2.274       .  S
In156       O164   2.249       .  S
In156       O165   2.233       .  S
In156       O168   2.263       .  S
C157       C1083   1.480       .  S
C157        O163   1.262       .  A
C157        O165   1.258       .  A
O158        C166   1.261       .  A
O159        C166   1.262       .  A
C160        C995   1.480       .  S
C160        O167   1.262       .  A
C160        O161   1.263   1_455  A
C162       C1139   1.482       .  S
C162        O164   1.262       .  A
C162        O168   1.261       .  A
C166       C1259   1.481       .  S
C169        C170   1.414       .  A
C169        C174   1.404       .  A
C169       C1205   1.488       .  S
C170        C171   1.401       .  A
C170        C963   1.477       .  S
C171        C172   1.400       .  A
C171        H176   1.084       .  S
C172        C173   1.418       .  A
C172        C973   1.484       .  S
C173        C174   1.408       .  A
C173        C941   1.485       .  S
C174        H175   1.084       .  S
C177        C178   1.418       .  A
C177        C182   1.409       .  A
C177       C1513   1.495       .  S
C178        C179   1.400       .  A
C178        C885   1.475       .  S
C179        C180   1.396       .  A
C179        H184   1.085       .  S
C180        C181   1.411       .  A
C180        C919   1.479       .  S
C181        C182   1.406       .  A
C181        C875   1.481       .  S
C182        H183   1.084       .  S
In185       O187   2.253       .  S
In185       O188   2.245       .  S
In185       O196   2.235   1_556  S
In185       O190   2.261       .  S
In185       O192   2.265       .  S
In185       O193   2.261   1_556  S
In185       O194   2.229       .  S
In185       O197   2.250   1_556  S
C186        C897   1.473       .  S
C186        O192   1.262       .  A
C186        O194   1.257       .  A
O187        C195   1.264       .  A
O188        C195   1.263       .  A
C189        C841   1.481       .  S
C189        O196   1.262       .  A
C189        O190   1.264   1_554  A
C191        C985   1.480       .  S
C191        O193   1.260       .  A
C191        O197   1.259       .  A
C195       C1655   1.483       .  S
In198       O200   2.226       .  S
In198       O201   2.267       .  S
In198       O209   2.232       .  S
In198       O203   2.241       .  S
In198       O205   2.258   1_556  S
In198       O206   2.246       .  S
In198       O207   2.240   1_556  S
In198       O210   2.234   1_556  S
C199        C951   1.475       .  S
C199        O205   1.259       .  A
C199        O207   1.258       .  A
O200        C208   1.256       .  A
O201        C208   1.261       .  A
C202        C819   1.474       .  S
C202        O209   1.263       .  A
C202        O203   1.264       .  A
C204       C1359   1.476       .  S
C204        O206   1.264   1_554  A
C204        O210   1.263       .  A
C208        C907   1.473       .  S
C211        C212   1.414       .  A
C211        C216   1.400       .  A
C211        C787   1.477       .  S
C212        C213   1.408       .  A
C212       C1699   1.491       .  S
C213        C214   1.410       .  A
C213        H218   1.084       .  S
C214        C215   1.417       .  A
C214        C853   1.489       .  S
C215        C216   1.400       .  A
C215        C797   1.484       .  S
C216        H217   1.085       .  S
C219        C220   1.416       .  A
C219        C224   1.409       .  A
C219       C1491   1.490       .  S
C220        C221   1.402       .  A
C220        C753   1.485       .  S
C221        C222   1.404       .  A
C221        H226   1.085       .  S
C222        C223   1.417       .  A
C222        C731   1.482       .  S
C223        C224   1.409       .  A
C223       C1017   1.495       .  S
C224        H225   1.084       .  S
In227       O229   2.254       .  S
In227       O230   2.246       .  S
In227       O238   2.241       .  S
In227       O232   2.251       .  S
In227       O234   2.271       .  S
In227       O235   2.267       .  S
In227       O236   2.253       .  S
In227       O239   2.252       .  S
C228        C765   1.481       .  S
C228        O234   1.258       .  A
C228        O236   1.256       .  A
O229        C237   1.264       .  A
O230        C237   1.263       .  A
C231        C929   1.477       .  S
C231        O238   1.262       .  A
C231        O232   1.263       .  A
C233        C809   1.481       .  S
C233        O235   1.259       .  A
C233        O239   1.257       .  A
C237       C1579   1.482       .  S
In240       O242   2.251       .  S
In240       O243   2.259   1_545  S
In240       O251   2.241       .  S
In240       O245   2.234       .  S
In240       O247   2.258       .  S
In240       O248   2.247       .  S
In240       O249   2.236   1_545  S
In240       O252   2.246       .  S
C241        C775   1.474   1_545  S
C241        O247   1.260       .  A
C241        O249   1.257   1_545  A
O242        C250   1.257   1_545  A
O243        C250   1.260       .  A
C244       C1039   1.474       .  S
C244        O251   1.263       .  A
C244        O245   1.262       .  A
C246       C1787   1.479       .  S
C246        O248   1.263       .  A
C246        O252   1.263       .  A
C250        C743   1.479       .  S
C253        C254   1.422       .  A
C253        C258   1.412       .  A
C253       C1469   1.496       .  S
C254        C255   1.403       .  A
C254        C709   1.485       .  S
C255        C256   1.398       .  A
C255        H260   1.085       .  S
C256        C257   1.413       .  A
C256        C699   1.484       .  S
C257        C258   1.410       .  A
C257       C1007   1.486       .  S
C258        H259   1.083       .  S
In261       O263   2.248       .  S
In261       O264   2.256   1_455  S
In261       O272   2.237       .  S
In261       O266   2.261   1_554  S
In261       O268   2.280   1_554  S
In261       O269   2.269   1_455  S
In261       O270   2.234   1_554  S
In261       O273   2.257   1_554  S
C262        C721   1.481       .  S
C262        O268   1.262       .  A
C262        O270   1.257       .  A
O263        C271   1.263       .  A
O264        C271   1.266   1_655  A
C265        C655   1.474       .  S
C265        O272   1.261       .  A
C265        O266   1.264   1_554  A
C267       C1623   1.486       .  S
C267        O269   1.262   1_556  A
C267        O273   1.259   1_655  A
C271        C677   1.481       .  S
C274        C275   1.419       .  A
C274        C279   1.413       .  A
C274       C1215   1.497       .  S
C275        C276   1.404       .  A
C275        C621   1.483       .  S
C276        C277   1.400       .  A
C276        H281   1.084       .  S
C277        C278   1.413       .  A
C277        C665   1.486       .  S
C278        C279   1.411       .  A
C278        C599   1.485       .  S
C279        H280   1.084       .  S
In282       O284   2.242   1_556  S
In282       O285   2.252       .  S
In282       O293   2.239       .  S
In282       O287   2.245   1_456  S
In282       O289   2.263   1_456  S
In282       O290   2.269       .  S
In282       O291   2.245   1_556  S
In282       O294   2.244       .  S
C283        C633   1.478       .  S
C283        O289   1.260   1_455  A
C283        O291   1.258       .  A
O284        C292   1.262       .  A
O285        C292   1.265   1_556  A
C286       C1117   1.478       .  S
C286        O293   1.263   1_655  A
C286        O287   1.264   1_556  A
C288        C687   1.481       .  S
C288        O290   1.262       .  A
C288        O294   1.258       .  A
C292       C1391   1.480       .  S
C295        C296   1.417       .  A
C295        C300   1.400       .  A
C295        C555   1.487       .  S
C296        C297   1.411       .  A
C296       C1777   1.489       .  S
C297        C298   1.411       .  A
C297        H302   1.084       .  S
C298        C299   1.420       .  A
C298        C643   1.496       .  S
C299        C300   1.401       .  A
C299        C577   1.483       .  S
C300        H301   1.085       .  S
C303        C304   1.418       .  A
C303        C308   1.409       .  A
C303       C1447   1.494       .  S
C304        C305   1.401       .  A
C304        C511   1.483       .  S
C305        C306   1.402       .  A
C305        H310   1.085       .  S
C306        C307   1.417       .  A
C306        C545   1.487       .  S
C307        C308   1.409       .  A
C307        C501   1.488       .  S
C308        H309   1.084       .  S
In311       O313   2.226       .  S
In311       O314   2.279       .  S
In311       O322   2.251       .  S
In311       O316   2.258       .  S
In311       O318   2.250       .  S
In311       O319   2.260       .  S
In311       O320   2.253       .  S
In311       O323   2.233       .  S
C312        C523   1.480       .  S
C312        O318   1.262       .  A
C312        O320   1.261       .  A
O313        C321   1.257       .  A
O314        C321   1.263       .  A
C315        C611   1.481       .  S
C315        O322   1.261       .  A
C315        O316   1.262       .  A
C317       C1535   1.481   1_455  S
C317        O319   1.265       .  A
C317        O323   1.263       .  A
C321        C589   1.481       .  S
In324       O326   2.243       .  S
In324       O327   2.256       .  S
In324       O335   2.248       .  S
In324       O329   2.263       .  S
In324       O331   2.276   1_545  S
In324       O332   2.275       .  S
In324       O333   2.248       .  S
In324       O336   2.241   1_545  S
C325        C533   1.483       .  S
C325        O331   1.261       .  A
C325        O333   1.257   1_565  A
O326        C334   1.263       .  A
O327        C334   1.264       .  A
C328       C1809   1.484       .  S
C328        O335   1.262       .  A
C328        O329   1.264       .  A
C330        C567   1.478       .  S
C330        O332   1.261   1_565  A
C330        O336   1.257       .  A
C334        C479   1.483       .  S
C337        C338   1.421       .  A
C337        C342   1.399       .  A
C337        C445   1.481       .  S
C338        C339   1.411       .  A
C338       C1755   1.495       .  S
C339        C340   1.406       .  A
C339        H344   1.083       .  S
C340        C341   1.414       .  A
C340        C831   1.485       .  S
C341        C342   1.397       .  A
C341        C423   1.482       .  S
C342        H343   1.085       .  S
C345        C346   1.416       .  A
C345        C350   1.402       .  A
C345        C379   1.482       .  S
C346        C347   1.407       .  A
C346       C1183   1.487       .  S
C347        C348   1.406       .  A
C347        H352   1.084       .  S
C348        C349   1.418       .  A
C348        C467   1.492       .  S
C349        C350   1.402       .  A
C349        C413   1.483       .  S
C350        H351   1.084       .  S
In353       O355   2.244       .  S
In353       O356   2.260       .  S
In353       O364   2.238       .  S
In353       O358   2.255       .  S
In353       O360   2.278       .  S
In353       O361   2.256       .  S
In353       O362   2.228       .  S
In353       O365   2.245       .  S
C354        C457   1.479       .  S
C354        O360   1.262       .  A
C354        O362   1.256       .  A
O355        C363   1.261       .  A
O356        C363   1.261       .  A
C357        C489   1.481   1_545  S
C357        O364   1.263       .  A
C357        O358   1.264       .  A
C359        C401   1.477       .  S
C359        O361   1.261       .  A
C359        O365   1.260       .  A
C363       C1897   1.480       .  S
In366       O368   2.257       .  S
In366       O369   2.255       .  S
In366       O377   2.240       .  S
In366       O371   2.249       .  S
In366       O373   2.268       .  S
In366       O374   2.256       .  S
In366       O375   2.222       .  S
In366       O378   2.242       .  S
C367        C391   1.474       .  S
C367        O373   1.264       .  A
C367        O375   1.259       .  A
O368        C376   1.257       .  A
O369        C376   1.259       .  A
C370        C863   1.478       .  S
C370        O377   1.261       .  A
C370        O371   1.263       .  A
C372       C1281   1.474       .  S
C372        O374   1.262       .  A
C372        O378   1.261       .  A
C376        C435   1.478       .  S
C379        C380   1.398       .  A
C379        C384   1.400       .  A
C380        C381   1.396       .  A
C380        H393   1.084       .  S
C381        C382   1.416       .  A
C381        H394   1.077       .  S
C382        C388   1.429       .  A
C382        C383   1.422       .  A
C383        C385   1.400       .  A
C383        C384   1.406       .  A
C384        H395   1.085       .  S
C385        C386   1.392       .  A
C385        H396   1.084       .  S
C386        C387   1.400       .  A
C386        H397   1.084       .  S
C387        C388   1.424       .  A
C387        C392   1.409       .  A
C388        C389   1.413       .  A
C389        C390   1.393       .  A
C389        H398   1.077       .  S
C390        C391   1.399       .  A
C390        H399   1.084       .  S
C391        C392   1.401       .  A
C392        H400   1.084       .  S
C401        C402   1.399       .  A
C401        C406   1.401       .  A
C402        C403   1.396       .  A
C402        H415   1.083       .  S
C403        C404   1.415       .  A
C403        H416   1.077       .  S
C404        C410   1.430       .  A
C404        C405   1.423       .  A
C405        C407   1.400       .  A
C405        C406   1.407       .  A
C406        H417   1.085       .  S
C407        C408   1.391       .  A
C407        H418   1.084       .  S
C408        C409   1.400       .  A
C408        H419   1.084       .  S
C409        C410   1.423       .  A
C409        C414   1.406       .  A
C410        C411   1.415       .  A
C411        C412   1.394       .  A
C411        H420   1.077       .  S
C412        C413   1.398       .  A
C412        H421   1.083       .  S
C413        C414   1.401       .  A
C414        H422   1.084       .  S
C423        C424   1.399       .  A
C423        C428   1.399       .  A
C424        C425   1.396       .  A
C424        H437   1.083       .  S
C425        C426   1.415       .  A
C425        H438   1.077       .  S
C426        C432   1.430       .  A
C426        C427   1.423       .  A
C427        C429   1.399       .  A
C427        C428   1.404       .  A
C428        H439   1.084       .  S
C429        C430   1.390       .  A
C429        H440   1.083       .  S
C430        C431   1.400       .  A
C430        H441   1.084       .  S
C431        C432   1.422       .  A
C431        C436   1.406       .  A
C432        C433   1.415       .  A
C433        C434   1.396       .  A
C433        H442   1.077       .  S
C434        C435   1.399       .  A
C434        H443   1.083       .  S
C435        C436   1.402       .  A
C436        H444   1.085       .  S
C445        C446   1.399       .  A
C445        C450   1.400       .  A
C446        C447   1.392       .  A
C446        H459   1.084       .  S
C447        C448   1.414       .  A
C447        H460   1.077       .  S
C448        C454   1.428       .  A
C448        C449   1.423       .  A
C449        C451   1.400       .  A
C449        C450   1.408       .  A
C450        H461   1.084       .  S
C451        C452   1.393       .  A
C451        H462   1.084       .  S
C452        C453   1.401       .  A
C452        H463   1.084       .  S
C453        C454   1.423       .  A
C453        C458   1.410       .  A
C454        C455   1.413       .  A
C455        C456   1.392       .  A
C455        H464   1.077       .  S
C456        C457   1.400       .  A
C456        H465   1.083       .  S
C457        C458   1.403       .  A
C458        H466   1.085       .  S
C467        C468   1.400       .  A
C467        C472   1.404       .  A
C468        C469   1.396       .  A
C468        H481   1.083       .  S
C469        C470   1.414       .  A
C469        H482   1.077       .  S
C470        C476   1.431       .  A
C470        C471   1.422       .  A
C471        C473   1.401       .  A
C471        C472   1.408       .  A
C472        H483   1.084       .  S
C473        C474   1.393       .  A
C473        H484   1.084       .  S
C474        C475   1.401       .  A
C474        H485   1.084       .  S
C475        C476   1.423       .  A
C475        C480   1.409       .  A
C476        C477   1.414       .  A
C477        C478   1.396       .  A
C477        H486   1.077       .  S
C478        C479   1.400       .  A
C478        H487   1.083       .  S
C479        C480   1.404       .  A
C480        H488   1.084       .  S
C489        C490   1.401       .  A
C489        C494   1.400       .  A
C490        C491   1.401       .  A
C490        H503   1.083   1_565  S
C491        C492   1.417       .  A
C491        H504   1.077       .  S
C492        C498   1.433       .  A
C492        C493   1.422       .  A
C493        C495   1.399       .  A
C493        C494   1.403       .  A
C494        H505   1.084       .  S
C495        C496   1.388       .  A
C495        H506   1.084       .  S
C496        C497   1.398       .  A
C496        H507   1.084       .  S
C497        C498   1.424       .  A
C497        C502   1.405       .  A
C498        C499   1.416       .  A
C499        C500   1.399       .  A
C499        H508   1.077       .  S
C500        C501   1.401       .  A
C500        H509   1.083       .  S
C501        C502   1.400       .  A
C502        H510   1.084       .  S
C511        C512   1.399       .  A
C511        C516   1.399       .  A
C512        C513   1.397       .  A
C512        H525   1.083       .  S
C513        C514   1.416       .  A
C513        H526   1.077       .  S
C514        C520   1.431       .  A
C514        C515   1.423       .  A
C515        C517   1.399       .  A
C515        C516   1.405       .  A
C516        H527   1.084       .  S
C517        C518   1.391       .  A
C517        H528   1.084       .  S
C518        C519   1.400       .  A
C518        H529   1.084       .  S
C519        C520   1.423       .  A
C519        C524   1.407       .  A
C520        C521   1.415       .  A
C521        C522   1.397       .  A
C521        H530   1.078       .  S
C522        C523   1.400       .  A
C522        H531   1.083       .  S
C523        C524   1.402       .  A
C524        H532   1.085       .  S
C533        C534   1.400       .  A
C533        C538   1.402       .  A
C534        C535   1.401       .  A
C534        H547   1.083       .  S
C535        C536   1.418       .  A
C535        H548   1.077       .  S
C536        C542   1.434       .  A
C536        C537   1.422       .  A
C537        C539   1.400       .  A
C537        C538   1.405       .  A
C538        H549   1.084       .  S
C539        C540   1.390       .  A
C539        H550   1.083       .  S
C540        C541   1.399       .  A
C540        H551   1.084       .  S
C541        C542   1.424       .  A
C541        C546   1.407       .  A
C542        C543   1.415       .  A
C543        C544   1.398       .  A
C543        H552   1.077       .  S
C544        C545   1.400       .  A
C544        H553   1.084       .  S
C545        C546   1.400       .  A
C546        H554   1.085       .  S
C555        C556   1.399       .  A
C555        C560   1.402       .  A
C556        C557   1.398       .  A
C556        H569   1.083       .  S
C557        C558   1.417       .  A
C557        H570   1.077       .  S
C558        C564   1.432       .  A
C558        C559   1.422       .  A
C559        C561   1.400       .  A
C559        C560   1.406       .  A
C560        H571   1.084       .  S
C561        C562   1.392       .  A
C561        H572   1.084       .  S
C562        C563   1.400       .  A
C562        H573   1.084       .  S
C563        C564   1.424       .  A
C563        C568   1.410       .  A
C564        C565   1.414       .  A
C565        C566   1.395       .  A
C565        H574   1.077       .  S
C566        C567   1.399       .  A
C566        H575   1.083       .  S
C567        C568   1.401       .  A
C568        H576   1.085       .  S
C577        C578   1.398       .  A
C577        C582   1.400       .  A
C578        C579   1.394       .  A
C578        H591   1.084       .  S
C579        C580   1.415       .  A
C579        H592   1.076       .  S
C580        C586   1.430       .  A
C580        C581   1.423       .  A
C581        C583   1.400       .  A
C581        C582   1.409       .  A
C582        H593   1.084       .  S
C583        C584   1.393       .  A
C583        H594   1.084       .  S
C584        C585   1.400       .  A
C584        H595   1.084       .  S
C585        C586   1.423       .  A
C585        C590   1.411       .  A
C586        C587   1.413       .  A
C587        C588   1.393       .  A
C587        H596   1.076       .  S
C588        C589   1.401       .  A
C588        H597   1.084       .  S
C589        C590   1.403       .  A
C590        H598   1.084       .  S
C599        C600   1.399   1_455  A
C599        C604   1.400       .  A
C600        C601   1.397       .  A
C600        H613   1.083       .  S
C601        C602   1.415   1_655  A
C601        H614   1.077       .  S
C602        C608   1.433       .  A
C602        C603   1.424       .  A
C603        C605   1.400       .  A
C603        C604   1.408       .  A
C604        H615   1.085       .  S
C605        C606   1.391       .  A
C605        H616   1.084       .  S
C606        C607   1.400       .  A
C606        H617   1.084       .  S
C607        C608   1.423       .  A
C607        C612   1.408       .  A
C608        C609   1.416       .  A
C609        C610   1.398       .  A
C609        H618   1.077   1_455  S
C610        C611   1.400       .  A
C610        H619   1.083   1_455  S
C611        C612   1.402       .  A
C612        H620   1.084       .  S
C621        C622   1.398   1_455  A
C621        C626   1.399       .  A
C622        C623   1.396       .  A
C622        H635   1.083       .  S
C623        C624   1.415   1_655  A
C623        H636   1.077       .  S
C624        C630   1.431       .  A
C624        C625   1.424       .  A
C625        C627   1.399       .  A
C625        C626   1.406       .  A
C626        H637   1.085       .  S
C627        C628   1.390       .  A
C627        H638   1.084       .  S
C628        C629   1.400       .  A
C628        H639   1.084       .  S
C629        C630   1.422       .  A
C629        C634   1.405       .  A
C630        C631   1.417   1_455  A
C631        C632   1.398       .  A
C631        H640   1.077       .  S
C632        C633   1.399   1_655  A
C632        H641   1.083       .  S
C633        C634   1.401       .  A
C634        H642   1.085       .  S
C643        C644   1.402       .  A
C643        C648   1.406       .  A
C644        C645   1.395       .  A
C644        H657   1.082       .  S
C645        C646   1.413       .  A
C645        H658   1.078       .  S
C646        C652   1.429       .  A
C646        C647   1.421       .  A
C647        C649   1.401       .  A
C647        C648   1.410       .  A
C648        H659   1.084       .  S
C649        C650   1.394       .  A
C649        H660   1.084       .  S
C650        C651   1.401       .  A
C650        H661   1.084       .  S
C651        C652   1.423       .  A
C651        C656   1.410       .  A
C652        C653   1.414       .  A
C653        C654   1.395       .  A
C653        H662   1.078       .  S
C654        C655   1.398       .  A
C654        H663   1.084       .  S
C655        C656   1.401       .  A
C656        H664   1.085       .  S
C665        C666   1.400       .  A
C665        C670   1.398   1_455  A
C666        C667   1.401       .  A
C666        H679   1.083       .  S
C667        C668   1.417       .  A
C667        H680   1.078       .  S
C668        C674   1.434       .  A
C668        C669   1.423   1_455  A
C669        C671   1.399       .  A
C669        C670   1.406       .  A
C670        H681   1.085       .  S
C671        C672   1.390       .  A
C671        H682   1.084       .  S
C672        C673   1.399       .  A
C672        H683   1.084       .  S
C673        C674   1.423   1_655  A
C673        C678   1.407       .  A
C674        C675   1.416       .  A
C675        C676   1.401       .  A
C675        H684   1.078       .  S
C676        C677   1.401       .  A
C676        H685   1.083       .  S
C677        C678   1.400   1_455  A
C678        H686   1.085       .  S
C687        C688   1.401       .  A
C687        C692   1.401       .  A
C688        C689   1.398       .  A
C688        H701   1.084   1_455  S
C689        C690   1.415       .  A
C689        H702   1.076   1_455  S
C690        C696   1.432       .  A
C690        C691   1.424       .  A
C691        C693   1.399       .  A
C691        C692   1.408       .  A
C692        H703   1.084       .  S
C693        C694   1.390       .  A
C693        H704   1.083       .  S
C694        C695   1.399       .  A
C694        H705   1.084       .  S
C695        C696   1.423       .  A
C695        C700   1.406       .  A
C696        C697   1.417       .  A
C697        C698   1.398       .  A
C697        H706   1.076   1_455  S
C698        C699   1.399       .  A
C698        H707   1.084   1_455  S
C699        C700   1.399       .  A
C700        H708   1.085       .  S
C709        C710   1.398       .  A
C709        C714   1.402       .  A
C710        C711   1.390       .  A
C710        H723   1.083   1_455  S
C711        C712   1.413       .  A
C711        H724   1.081   1_455  S
C712        C718   1.430       .  A
C712        C713   1.424       .  A
C713        C715   1.401       .  A
C713        C714   1.411       .  A
C714        H725   1.085       .  S
C715        C716   1.394       .  A
C715        H726   1.084       .  S
C716        C717   1.401       .  A
C716        H727   1.084       .  S
C717        C718   1.423       .  A
C717        C722   1.411       .  A
C718        C719   1.413       .  A
C719        C720   1.391       .  A
C719        H728   1.081   1_455  S
C720        C721   1.400       .  A
C720        H729   1.083   1_455  S
C721        C722   1.403       .  A
C722        H730   1.086       .  S
C731        C732   1.399       .  A
C731        C736   1.398       .  A
C732        C733   1.399       .  A
C732        H745   1.083       .  S
C733        C734   1.417       .  A
C733        H746   1.078       .  S
C734        C740   1.432       .  A
C734        C735   1.423       .  A
C735        C737   1.399       .  A
C735        C736   1.404       .  A
C736        H747   1.085       .  S
C737        C738   1.389       .  A
C737        H748   1.084       .  S
C738        C739   1.399       .  A
C738        H749   1.084       .  S
C739        C740   1.423       .  A
C739        C744   1.405       .  A
C740        C741   1.415       .  A
C741        C742   1.399       .  A
C741        H750   1.078       .  S
C742        C743   1.401       .  A
C742        H751   1.083   1_565  S
C743        C744   1.400       .  A
C744        H752   1.085       .  S
C753        C754   1.399       .  A
C753        C758   1.400       .  A
C754        C755   1.398       .  A
C754        H767   1.083       .  S
C755        C756   1.416       .  A
C755        H768   1.077       .  S
C756        C762   1.433       .  A
C756        C757   1.424       .  A
C757        C759   1.399       .  A
C757        C758   1.406       .  A
C758        H769   1.084       .  S
C759        C760   1.390       .  A
C759        H770   1.084       .  S
C760        C761   1.400       .  A
C760        H771   1.084       .  S
C761        C762   1.422       .  A
C761        C766   1.405       .  A
C762        C763   1.417       .  A
C763        C764   1.400       .  A
C763        H772   1.077       .  S
C764        C765   1.400       .  A
C764        H773   1.083       .  S
C765        C766   1.401       .  A
C766        H774   1.084       .  S
C775        C776   1.399       .  A
C775        C780   1.400       .  A
C776        C777   1.397       .  A
C776        H789   1.083   1_565  S
C777        C778   1.416       .  A
C777        H790   1.078       .  S
C778        C784   1.428       .  A
C778        C779   1.422       .  A
C779        C781   1.399       .  A
C779        C780   1.402       .  A
C780        H791   1.085       .  S
C781        C782   1.389       .  A
C781        H792   1.084       .  S
C782        C783   1.399       .  A
C782        H793   1.084       .  S
C783        C784   1.423       .  A
C783        C788   1.403       .  A
C784        C785   1.415       .  A
C785        C786   1.396       .  A
C785        H794   1.077       .  S
C786        C787   1.397       .  A
C786        H795   1.083       .  S
C787        C788   1.398       .  A
C788        H796   1.085       .  S
C797        C798   1.399       .  A
C797        C802   1.399       .  A
C798        C799   1.398       .  A
C798        H811   1.083       .  S
C799        C800   1.416       .  A
C799        H812   1.077       .  S
C800        C806   1.432       .  A
C800        C801   1.424       .  A
C801        C803   1.399       .  A
C801        C802   1.405       .  A
C802        H813   1.085       .  S
C803        C804   1.389       .  A
C803        H814   1.084       .  S
C804        C805   1.399       .  A
C804        H815   1.084       .  S
C805        C806   1.422       .  A
C805        C810   1.405       .  A
C806        C807   1.416       .  A
C807        C808   1.399       .  A
C807        H816   1.077       .  S
C808        C809   1.400       .  A
C808        H817   1.083       .  S
C809        C810   1.401       .  A
C810        H818   1.085       .  S
C819        C820   1.398       .  A
C819        C824   1.401       .  A
C820        C821   1.394       .  A
C820        H833   1.083       .  S
C821        C822   1.414       .  A
C821        H834   1.078       .  S
C822        C828   1.427       .  A
C822        C823   1.423       .  A
C823        C825   1.400       .  A
C823        C824   1.405       .  A
C824        H835   1.085       .  S
C825        C826   1.390       .  A
C825        H836   1.084       .  S
C826        C827   1.400       .  A
C826        H837   1.084       .  S
C827        C828   1.422       .  A
C827        C832   1.404       .  A
C828        C829   1.414       .  A
C829        C830   1.394       .  A
C829        H838   1.078       .  S
C830        C831   1.400       .  A
C830        H839   1.083       .  S
C831        C832   1.401       .  A
C832        H840   1.085       .  S
C841        C842   1.400       .  A
C841        C846   1.403       .  A
C842        C843   1.395       .  A
C842        H855   1.083       .  S
C843        C844   1.414       .  A
C843        H856   1.077       .  S
C844        C850   1.430       .  A
C844        C845   1.423       .  A
C845        C847   1.400       .  A
C845        C846   1.409       .  A
C846        H857   1.084       .  S
C847        C848   1.392       .  A
C847        H858   1.084       .  S
C848        C849   1.400       .  A
C848        H859   1.084       .  S
C849        C850   1.422       .  A
C849        C854   1.406       .  A
C850        C851   1.415       .  A
C851        C852   1.396       .  A
C851        H860   1.078       .  S
C852        C853   1.401       .  A
C852        H861   1.083       .  S
C853        C854   1.401       .  A
C854        H862   1.085       .  S
C863        C864   1.399       .  A
C863        C868   1.401       .  A
C864        C865   1.397       .  A
C864        H877   1.083       .  S
C865        C866   1.415       .  A
C865        H878   1.077       .  S
C866        C872   1.429       .  A
C866        C867   1.422       .  A
C867        C869   1.400       .  A
C867        C868   1.404       .  A
C868        H879   1.084       .  S
C869        C870   1.390       .  A
C869        H880   1.084       .  S
C870        C871   1.399       .  A
C870        H881   1.084       .  S
C871        C872   1.423       .  A
C871        C876   1.404       .  A
C872        C873   1.415       .  A
C873        C874   1.395       .  A
C873        H882   1.077       .  S
C874        C875   1.398       .  A
C874        H883   1.083       .  S
C875        C876   1.400       .  A
C876        H884   1.085       .  S
C885        C886   1.397       .  A
C885        C890   1.398       .  A
C886        C887   1.394       .  A
C886        H899   1.084       .  S
C887        C888   1.416       .  A
C887        H900   1.077       .  S
C888        C894   1.426       .  A
C888        C889   1.422       .  A
C889        C891   1.399       .  A
C889        C890   1.400       .  A
C890        H901   1.085       .  S
C891        C892   1.389       .  A
C891        H902   1.084       .  S
C892        C893   1.399       .  A
C892        H903   1.084       .  S
C893        C894   1.424       .  A
C893        C898   1.405       .  A
C894        C895   1.413       .  A
C895        C896   1.393       .  A
C895        H904   1.077       .  S
C896        C897   1.399       .  A
C896        H905   1.084       .  S
C897        C898   1.399       .  A
C898        H906   1.084       .  S
C907        C908   1.399       .  A
C907        C912   1.400       .  A
C908        C909   1.392       .  A
C908        H921   1.083       .  S
C909        C910   1.413       .  A
C909        H922   1.078       .  S
C910        C916   1.427       .  A
C910        C911   1.424       .  A
C911        C913   1.399       .  A
C911        C912   1.406       .  A
C912        H923   1.085       .  S
C913        C914   1.390       .  A
C913        H924   1.084       .  S
C914        C915   1.399       .  A
C914        H925   1.084       .  S
C915        C916   1.422       .  A
C915        C920   1.403       .  A
C916        C917   1.416       .  A
C917        C918   1.394       .  A
C917        H926   1.078       .  S
C918        C919   1.398       .  A
C918        H927   1.083       .  S
C919        C920   1.399       .  A
C920        H928   1.085       .  S
C929        C930   1.400       .  A
C929        C934   1.400       .  A
C930        C931   1.398       .  A
C930        H943   1.083       .  S
C931        C932   1.416       .  A
C931        H944   1.078       .  S
C932        C938   1.429       .  A
C932        C933   1.422       .  A
C933        C935   1.399       .  A
C933        C934   1.403       .  A
C934        H945   1.085       .  S
C935        C936   1.388       .  A
C935        H946   1.084       .  S
C936        C937   1.398       .  A
C936        H947   1.084       .  S
C937        C938   1.422       .  A
C937        C942   1.402       .  A
C938        C939   1.415       .  A
C939        C940   1.397       .  A
C939        H948   1.078       .  S
C940        C941   1.401       .  A
C940        H949   1.083       .  S
C941        C942   1.400       .  A
C942        H950   1.084       .  S
C951        C952   1.399       .  A
C951        C956   1.401       .  A
C952        C953   1.393       .  A
C952        H965   1.083       .  S
C953        C954   1.414       .  A
C953        H966   1.078       .  S
C954        C960   1.427       .  A
C954        C955   1.422       .  A
C955        C957   1.400       .  A
C955        C956   1.406       .  A
C956        H967   1.085       .  S
C957        C958   1.391       .  A
C957        H968   1.084       .  S
C958        C959   1.399       .  A
C958        H969   1.084       .  S
C959        C960   1.423       .  A
C959        C964   1.405       .  A
C960        C961   1.414       .  A
C961        C962   1.391       .  A
C961        H970   1.078       .  S
C962        C963   1.397       .  A
C962        H971   1.083       .  S
C963        C964   1.399       .  A
C964        H972   1.085       .  S
C973        C974   1.399       .  A
C973        C978   1.399       .  A
C974        C975   1.398       .  A
C974        H987   1.084       .  S
C975        C976   1.416       .  A
C975        H988   1.077       .  S
C976        C982   1.432       .  A
C976        C977   1.424       .  A
C977        C979   1.399       .  A
C977        C978   1.406       .  A
C978        H989   1.085       .  S
C979        C980   1.390       .  A
C979        H990   1.084       .  S
C980        C981   1.400       .  A
C980        H991   1.084       .  S
C981        C982   1.422       .  A
C981        C986   1.406       .  A
C982        C983   1.416       .  A
C983        C984   1.399       .  A
C983        H992   1.077       .  S
C984        C985   1.400       .  A
C984        H993   1.083       .  S
C985        C986   1.401       .  A
C986        H994   1.084       .  S
C995        C996   1.401       .  A
C995       C1000   1.400   1_455  A
C996        C997   1.400       .  A
C996       H1009   1.083       .  S
C997        C998   1.416       .  A
C997       H1010   1.078       .  S
C998       C1004   1.433       .  A
C998        C999   1.423       .  A
C999       C1001   1.399   1_455  A
C999       C1000   1.404   1_455  A
C1000      H1011   1.084       .  S
C1001      C1002   1.388       .  A
C1001      H1012   1.084       .  S
C1002      C1003   1.398   1_655  A
C1002      H1013   1.084       .  S
C1003      C1004   1.424       .  A
C1003      C1008   1.405       .  A
C1004      C1005   1.416       .  A
C1005      C1006   1.399       .  A
C1005      H1014   1.078       .  S
C1006      C1007   1.401       .  A
C1006      H1015   1.083       .  S
C1007      C1008   1.399       .  A
C1008      H1016   1.085   1_455  S
C1017      C1018   1.401       .  A
C1017      C1022   1.404       .  A
C1018      C1019   1.398       .  A
C1018      H1031   1.083       .  S
C1019      C1020   1.415       .  A
C1019      H1032   1.077       .  S
C1020      C1026   1.432       .  A
C1020      C1021   1.422       .  A
C1021      C1023   1.400       .  A
C1021      C1022   1.408       .  A
C1022      H1033   1.084       .  S
C1023      C1024   1.392       .  A
C1023      H1034   1.084       .  S
C1024      C1025   1.400       .  A
C1024      H1035   1.084       .  S
C1025      C1026   1.423       .  A
C1025      C1030   1.408       .  A
C1026      C1027   1.416       .  A
C1027      C1028   1.398       .  A
C1027      H1036   1.077       .  S
C1028      C1029   1.400       .  A
C1028      H1037   1.083       .  S
C1029      C1030   1.403       .  A
C1030      H1038   1.084       .  S
C1039      C1040   1.399       .  A
C1039      C1044   1.400       .  A
C1040      C1041   1.395       .  A
C1040      H1053   1.083       .  S
C1041      C1042   1.415       .  A
C1041      H1054   1.077       .  S
C1042      C1048   1.429       .  A
C1042      C1043   1.423       .  A
C1043      C1045   1.399       .  A
C1043      C1044   1.404       .  A
C1044      H1055   1.084       .  S
C1045      C1046   1.389       .  A
C1045      H1056   1.084       .  S
C1046      C1047   1.399       .  A
C1046      H1057   1.084       .  S
C1047      C1048   1.422       .  A
C1047      C1052   1.403       .  A
C1048      C1049   1.415       .  A
C1049      C1050   1.395       .  A
C1049      H1058   1.077       .  S
C1050      C1051   1.401       .  A
C1050      H1059   1.083       .  S
C1051      C1052   1.401       .  A
C1052      H1060   1.084       .  S
C1061      C1062   1.399       .  A
C1061      C1066   1.401       .  A
C1062      C1063   1.397       .  A
C1062      H1075   1.084       .  S
C1063      C1064   1.416       .  A
C1063      H1076   1.076       .  S
C1064      C1070   1.431       .  A
C1064      C1065   1.422       .  A
C1065      C1067   1.400       .  A
C1065      C1066   1.406       .  A
C1066      H1077   1.084       .  S
C1067      C1068   1.391       .  A
C1067      H1078   1.084       .  S
C1068      C1069   1.400       .  A
C1068      H1079   1.084       .  S
C1069      C1070   1.424       .  A
C1069      C1074   1.408       .  A
C1070      C1071   1.414       .  A
C1071      C1072   1.395       .  A
C1071      H1080   1.076       .  S
C1072      C1073   1.400       .  A
C1072      H1081   1.084       .  S
C1073      C1074   1.401       .  A
C1074      H1082   1.084       .  S
C1083      C1084   1.400       .  A
C1083      C1088   1.400       .  A
C1084      C1085   1.402       .  A
C1084      H1097   1.083       .  S
C1085      C1086   1.417       .  A
C1085      H1098   1.078       .  S
C1086      C1092   1.432       .  A
C1086      C1087   1.423       .  A
C1087      C1089   1.398       .  A
C1087      C1088   1.401       .  A
C1088      H1099   1.085       .  S
C1089      C1090   1.386       .  A
C1089      H1100   1.084       .  S
C1090      C1091   1.398       .  A
C1090      H1101   1.084       .  S
C1091      C1092   1.423       .  A
C1091      C1096   1.399       .  A
C1092      C1093   1.418       .  A
C1093      C1094   1.401       .  A
C1093      H1102   1.077       .  S
C1094      C1095   1.399       .  A
C1094      H1103   1.083       .  S
C1095      C1096   1.398       .  A
C1096      H1104   1.085       .  S
C1105      C1106   1.401       .  A
C1105      C1110   1.402       .  A
C1106      C1107   1.395       .  A
C1106      H1119   1.083       .  S
C1107      C1108   1.414       .  A
C1107      H1120   1.077       .  S
C1108      C1114   1.430       .  A
C1108      C1109   1.423       .  A
C1109      C1111   1.399       .  A
C1109      C1110   1.405       .  A
C1110      H1121   1.084       .  S
C1111      C1112   1.390       .  A
C1111      H1122   1.084       .  S
C1112      C1113   1.400       .  A
C1112      H1123   1.084       .  S
C1113      C1114   1.422       .  A
C1113      C1118   1.405       .  A
C1114      C1115   1.415       .  A
C1115      C1116   1.397       .  A
C1115      H1124   1.077       .  S
C1116      C1117   1.399       .  A
C1116      H1125   1.083       .  S
C1117      C1118   1.401       .  A
C1118      H1126   1.085       .  S
C1127      C1128   1.398       .  A
C1127      C1132   1.401       .  A
C1128      C1129   1.397       .  A
C1128      H1141   1.084       .  S
C1129      C1130   1.416       .  A
C1129      H1142   1.078       .  S
C1130      C1136   1.431       .  A
C1130      C1131   1.423       .  A
C1131      C1133   1.400       .  A
C1131      C1132   1.407       .  A
C1132      H1143   1.085       .  S
C1133      C1134   1.392       .  A
C1133      H1144   1.084       .  S
C1134      C1135   1.401       .  A
C1134      H1145   1.084       .  S
C1135      C1136   1.423       .  A
C1135      C1140   1.410       .  A
C1136      C1137   1.414       .  A
C1137      C1138   1.396       .  A
C1137      H1146   1.078       .  S
C1138      C1139   1.400       .  A
C1138      H1147   1.083       .  S
C1139      C1140   1.403       .  A
C1140      H1148   1.084       .  S
C1149      C1150   1.398       .  A
C1149      C1154   1.401       .  A
C1150      C1151   1.398       .  A
C1150      H1163   1.083       .  S
C1151      C1152   1.416       .  A
C1151      H1164   1.077       .  S
C1152      C1158   1.433       .  A
C1152      C1153   1.424       .  A
C1153      C1155   1.399       .  A
C1153      C1154   1.407       .  A
C1154      H1165   1.085       .  S
C1155      C1156   1.391       .  A
C1155      H1166   1.084       .  S
C1156      C1157   1.400       .  A
C1156      H1167   1.084       .  S
C1157      C1158   1.422       .  A
C1157      C1162   1.407       .  A
C1158      C1159   1.416       .  A
C1159      C1160   1.400       .  A
C1159      H1168   1.077       .  S
C1160      C1161   1.401       .  A
C1160      H1169   1.083       .  S
C1161      C1162   1.403       .  A
C1162      H1170   1.084       .  S
C1171      C1172   1.399       .  A
C1171      C1176   1.402       .  A
C1172      C1173   1.395       .  A
C1172      H1185   1.083       .  S
C1173      C1174   1.415       .  A
C1173      H1186   1.078       .  S
C1174      C1180   1.430       .  A
C1174      C1175   1.423       .  A
C1175      C1177   1.400       .  A
C1175      C1176   1.407       .  A
C1176      H1187   1.085       .  S
C1177      C1178   1.391       .  A
C1177      H1188   1.084       .  S
C1178      C1179   1.400       .  A
C1178      H1189   1.084       .  S
C1179      C1180   1.423       .  A
C1179      C1184   1.406       .  A
C1180      C1181   1.415       .  A
C1181      C1182   1.395       .  A
C1181      H1190   1.078       .  S
C1182      C1183   1.399       .  A
C1182      H1191   1.083       .  S
C1183      C1184   1.402       .  A
C1184      H1192   1.085       .  S
C1193      C1194   1.400       .  A
C1193      C1198   1.402       .  A
C1194      C1195   1.397       .  A
C1194      H1207   1.083       .  S
C1195      C1196   1.415       .  A
C1195      H1208   1.077       .  S
C1196      C1202   1.431       .  A
C1196      C1197   1.423       .  A
C1197      C1199   1.400       .  A
C1197      C1198   1.407       .  A
C1198      H1209   1.084       .  S
C1199      C1200   1.391       .  A
C1199      H1210   1.084       .  S
C1200      C1201   1.400       .  A
C1200      H1211   1.084       .  S
C1201      C1202   1.423       .  A
C1201      C1206   1.408       .  A
C1202      C1203   1.415       .  A
C1203      C1204   1.395       .  A
C1203      H1212   1.077       .  S
C1204      C1205   1.400       .  A
C1204      H1213   1.083       .  S
C1205      C1206   1.401       .  A
C1206      H1214   1.085       .  S
C1215      C1216   1.403   1_455  A
C1215      C1220   1.402       .  A
C1216      C1217   1.402       .  A
C1216      H1229   1.083       .  S
C1217      C1218   1.416   1_655  A
C1217      H1230   1.078       .  S
C1218      C1224   1.437       .  A
C1218      C1219   1.423       .  A
C1219      C1221   1.399       .  A
C1219      C1220   1.409       .  A
C1220      H1231   1.084       .  S
C1221      C1222   1.391       .  A
C1221      H1232   1.084       .  S
C1222      C1223   1.400       .  A
C1222      H1233   1.084       .  S
C1223      C1224   1.423       .  A
C1223      C1228   1.409       .  A
C1224      C1225   1.416   1_455  A
C1225      C1226   1.402   1_655  A
C1225      H1234   1.078       .  S
C1226      C1227   1.402       .  A
C1226      H1235   1.083   1_455  S
C1227      C1228   1.403       .  A
C1228      H1236   1.084       .  S
C1237      C1238   1.405       .  A
C1237      C1242   1.405       .  A
C1238      C1239   1.399       .  A
C1238      H1251   1.083       .  S
C1239      C1240   1.413       .  A
C1239      H1252   1.078       .  S
C1240      C1246   1.430       .  A
C1240      C1241   1.421       .  A
C1241      C1243   1.399       .  A
C1241      C1242   1.404       .  A
C1242      H1253   1.081       .  S
C1243      C1244   1.390       .  A
C1243      H1254   1.084       .  S
C1244      C1245   1.400       .  A
C1244      H1255   1.084       .  S
C1245      C1246   1.422       .  A
C1245      C1250   1.405       .  A
C1246      C1247   1.416       .  A
C1247      C1248   1.401       .  A
C1247      H1256   1.079       .  S
C1248      C1249   1.399       .  A
C1248      H1257   1.083       .  S
C1249      C1250   1.401       .  A
C1250      H1258   1.085       .  S
C1259      C1260   1.401       .  A
C1259      C1264   1.400       .  A
C1260      C1261   1.401       .  A
C1260      H1273   1.083       .  S
C1261      C1262   1.417       .  A
C1261      H1274   1.078       .  S
C1262      C1268   1.434       .  A
C1262      C1263   1.423       .  A
C1263      C1265   1.399       .  A
C1263      C1264   1.405       .  A
C1264      H1275   1.085       .  S
C1265      C1266   1.388       .  A
C1265      H1276   1.084       .  S
C1266      C1267   1.398       .  A
C1266      H1277   1.084       .  S
C1267      C1268   1.423       .  A
C1267      C1272   1.405       .  A
C1268      C1269   1.415       .  A
C1269      C1270   1.399       .  A
C1269      H1278   1.078       .  S
C1270      C1271   1.403       .  A
C1270      H1279   1.083       .  S
C1271      C1272   1.400       .  A
C1272      H1280   1.085       .  S
C1281      C1282   1.399       .  A
C1281      C1286   1.401       .  A
C1282      C1283   1.396       .  A
C1282      H1295   1.084       .  S
C1283      C1284   1.413       .  A
C1283      H1296   1.079       .  S
C1284      C1290   1.427       .  A
C1284      C1285   1.422       .  A
C1285      C1287   1.400       .  A
C1285      C1286   1.407       .  A
C1286      H1297   1.084       .  S
C1287      C1288   1.393       .  A
C1287      H1298   1.084       .  S
C1288      C1289   1.400       .  A
C1288      H1299   1.084       .  S
C1289      C1290   1.420       .  A
C1289      C1294   1.407       .  A
C1290      C1291   1.411       .  A
C1291      C1292   1.395       .  A
C1291      H1300   1.079       .  S
C1292      C1293   1.404       .  A
C1292      H1301   1.080       .  S
C1293      C1294   1.404       .  A
C1294      H1302   1.084       .  S
C1303      C1304   1.397       .  A
C1303      C1308   1.397       .  A
C1304      C1305   1.392       .  A
C1304      H1317   1.084       .  S
C1305      C1306   1.415       .  A
C1305      H1318   1.076       .  S
C1306      C1312   1.428       .  A
C1306      C1307   1.423       .  A
C1307      C1309   1.399       .  A
C1307      C1308   1.406       .  A
C1308      H1319   1.084       .  S
C1309      C1310   1.391       .  A
C1309      H1320   1.084       .  S
C1310      C1311   1.400       .  A
C1310      H1321   1.084       .  S
C1311      C1312   1.423       .  A
C1311      C1316   1.407       .  A
C1312      C1313   1.413       .  A
C1313      C1314   1.392       .  A
C1313      H1322   1.076       .  S
C1314      C1315   1.400       .  A
C1314      H1323   1.084       .  S
C1315      C1316   1.401       .  A
C1316      H1324   1.084       .  S
C1325      C1326   1.396       .  A
C1325      C1330   1.399       .  A
C1326      C1327   1.394       .  A
C1326      H1339   1.084       .  S
C1327      C1328   1.416       .  A
C1327      H1340   1.077       .  S
C1328      C1334   1.429       .  A
C1328      C1329   1.423       .  A
C1329      C1331   1.400       .  A
C1329      C1330   1.405       .  A
C1330      H1341   1.085       .  S
C1331      C1332   1.391       .  A
C1331      H1342   1.084       .  S
C1332      C1333   1.400       .  A
C1332      H1343   1.084       .  S
C1333      C1334   1.424       .  A
C1333      C1338   1.408       .  A
C1334      C1335   1.413       .  A
C1335      C1336   1.394       .  A
C1335      H1344   1.077       .  S
C1336      C1337   1.400       .  A
C1336      H1345   1.083       .  S
C1337      C1338   1.401       .  A
C1338      H1346   1.084       .  S
C1347      C1348   1.399       .  A
C1347      C1352   1.400       .  A
C1348      C1349   1.396       .  A
C1348      H1361   1.083       .  S
C1349      C1350   1.415       .  A
C1349      H1362   1.078       .  S
C1350      C1356   1.431       .  A
C1350      C1351   1.423       .  A
C1351      C1353   1.399       .  A
C1351      C1352   1.406       .  A
C1352      H1363   1.085       .  S
C1353      C1354   1.390       .  A
C1353      H1364   1.084       .  S
C1354      C1355   1.399       .  A
C1354      H1365   1.084       .  S
C1355      C1356   1.423       .  A
C1355      C1360   1.406       .  A
C1356      C1357   1.415       .  A
C1357      C1358   1.396       .  A
C1357      H1366   1.077       .  S
C1358      C1359   1.399       .  A
C1358      H1367   1.083       .  S
C1359      C1360   1.400       .  A
C1360      H1368   1.085       .  S
C1369      C1370   1.400       .  A
C1369      C1374   1.401       .  A
C1370      C1371   1.398       .  A
C1370      H1383   1.083       .  S
C1371      C1372   1.415       .  A
C1371      H1384   1.078       .  S
C1372      C1378   1.431       .  A
C1372      C1373   1.423       .  A
C1373      C1375   1.400       .  A
C1373      C1374   1.407       .  A
C1374      H1385   1.085       .  S
C1375      C1376   1.391       .  A
C1375      H1386   1.084       .  S
C1376      C1377   1.399       .  A
C1376      H1387   1.084       .  S
C1377      C1378   1.423       .  A
C1377      C1382   1.406       .  A
C1378      C1379   1.416       .  A
C1379      C1380   1.397       .  A
C1379      H1388   1.078       .  S
C1380      C1381   1.400       .  A
C1380      H1389   1.083       .  S
C1381      C1382   1.399       .  A
C1382      H1390   1.084       .  S
C1391      C1392   1.401       .  A
C1391      C1396   1.400       .  A
C1392      C1393   1.398       .  A
C1392      H1405   1.083       .  S
C1393      C1394   1.415       .  A
C1393      H1406   1.077       .  S
C1394      C1400   1.432       .  A
C1394      C1395   1.423       .  A
C1395      C1397   1.399       .  A
C1395      C1396   1.406       .  A
C1396      H1407   1.084       .  S
C1397      C1398   1.390       .  A
C1397      H1408   1.084       .  S
C1398      C1399   1.399       .  A
C1398      H1409   1.084       .  S
C1399      C1400   1.423       .  A
C1399      C1404   1.405       .  A
C1400      C1401   1.416       .  A
C1401      C1402   1.398       .  A
C1401      H1410   1.077       .  S
C1402      C1403   1.400       .  A
C1402      H1411   1.083       .  S
C1403      C1404   1.401       .  A
C1404      H1412   1.085       .  S
C1413      C1414   1.399       .  A
C1413      C1418   1.403       .  A
C1414      C1415   1.396       .  A
C1414      H1427   1.083       .  S
C1415      C1416   1.416       .  A
C1415      H1428   1.076       .  S
C1416      C1422   1.432       .  A
C1416      C1417   1.422       .  A
C1417      C1419   1.401       .  A
C1417      C1418   1.410       .  A
C1418      H1429   1.084       .  S
C1419      C1420   1.394       .  A
C1419      H1430   1.084       .  S
C1420      C1421   1.401       .  A
C1420      H1431   1.084       .  S
C1421      C1422   1.424       .  A
C1421      C1426   1.413       .  A
C1422      C1423   1.414       .  A
C1423      C1424   1.395       .  A
C1423      H1432   1.076       .  S
C1424      C1425   1.400       .  A
C1424      H1433   1.083       .  S
C1425      C1426   1.405       .  A
C1426      H1434   1.084       .  S
C1435      C1436   1.400       .  A
C1435      C1440   1.402       .  A
C1436      C1437   1.400       .  A
C1436      H1449   1.083       .  S
C1437      C1438   1.416       .  A
C1437      H1450   1.078       .  S
C1438      C1444   1.432       .  A
C1438      C1439   1.422       .  A
C1439      C1441   1.400       .  A
C1439      C1440   1.406       .  A
C1440      H1451   1.084       .  S
C1441      C1442   1.390       .  A
C1441      H1452   1.083       .  S
C1442      C1443   1.399       .  A
C1442      H1453   1.084       .  S
C1443      C1444   1.422       .  A
C1443      C1448   1.404       .  A
C1444      C1445   1.415       .  A
C1445      C1446   1.399       .  A
C1445      H1454   1.078       .  S
C1446      C1447   1.402       .  A
C1446      H1455   1.083       .  S
C1447      C1448   1.403       .  A
C1448      H1456   1.084       .  S
C1457      C1458   1.400       .  A
C1457      C1462   1.397   1_455  A
C1458      C1459   1.403       .  A
C1458      H1471   1.083       .  S
C1459      C1460   1.417       .  A
C1459      H1472   1.079       .  S
C1460      C1466   1.432       .  A
C1460      C1461   1.423       .  A
C1461      C1463   1.398   1_455  A
C1461      C1462   1.402   1_455  A
C1462      H1473   1.085       .  S
C1463      C1464   1.387       .  A
C1463      H1474   1.084       .  S
C1464      C1465   1.398   1_655  A
C1464      H1475   1.084       .  S
C1465      C1466   1.422       .  A
C1465      C1470   1.402       .  A
C1466      C1467   1.416       .  A
C1467      C1468   1.402       .  A
C1467      H1476   1.078       .  S
C1468      C1469   1.404       .  A
C1468      H1477   1.083       .  S
C1469      C1470   1.402       .  A
C1470      H1478   1.082   1_455  S
C1479      C1480   1.400       .  A
C1479      C1484   1.402       .  A
C1480      C1481   1.398       .  A
C1480      H1493   1.083       .  S
C1481      C1482   1.415       .  A
C1481      H1494   1.077       .  S
C1482      C1488   1.431       .  A
C1482      C1483   1.422       .  A
C1483      C1485   1.400       .  A
C1483      C1484   1.406       .  A
C1484      H1495   1.085       .  S
C1485      C1486   1.390       .  A
C1485      H1496   1.084       .  S
C1486      C1487   1.399       .  A
C1486      H1497   1.084       .  S
C1487      C1488   1.422       .  A
C1487      C1492   1.405       .  A
C1488      C1489   1.415       .  A
C1489      C1490   1.397       .  A
C1489      H1498   1.077       .  S
C1490      C1491   1.401       .  A
C1490      H1499   1.084       .  S
C1491      C1492   1.402       .  A
C1492      H1500   1.083       .  S
C1501      C1502   1.400       .  A
C1501      C1506   1.403       .  A
C1502      C1503   1.397       .  A
C1502      H1515   1.083       .  S
C1503      C1504   1.415       .  A
C1503      H1516   1.077       .  S
C1504      C1510   1.431       .  A
C1504      C1505   1.422       .  A
C1505      C1507   1.400       .  A
C1505      C1506   1.407       .  A
C1506      H1517   1.084       .  S
C1507      C1508   1.391       .  A
C1507      H1518   1.084       .  S
C1508      C1509   1.400       .  A
C1508      H1519   1.084       .  S
C1509      C1510   1.422       .  A
C1509      C1514   1.406       .  A
C1510      C1511   1.414       .  A
C1511      C1512   1.396       .  A
C1511      H1520   1.077       .  S
C1512      C1513   1.401       .  A
C1512      H1521   1.083       .  S
C1513      C1514   1.405       .  A
C1514      H1522   1.083       .  S
C1523      C1524   1.399       .  A
C1523      C1528   1.402       .  A
C1524      C1525   1.395       .  A
C1524      H1537   1.083       .  S
C1525      C1526   1.415       .  A
C1525      H1538   1.077       .  S
C1526      C1532   1.431       .  A
C1526      C1527   1.423       .  A
C1527      C1529   1.400       .  A
C1527      C1528   1.408       .  A
C1528      H1539   1.085       .  S
C1529      C1530   1.392       .  A
C1529      H1540   1.084       .  S
C1530      C1531   1.400       .  A
C1530      H1541   1.084       .  S
C1531      C1532   1.423       .  A
C1531      C1536   1.410       .  A
C1532      C1533   1.414       .  A
C1533      C1534   1.395       .  A
C1533      H1542   1.077       .  S
C1534      C1535   1.399       .  A
C1534      H1543   1.083       .  S
C1535      C1536   1.403       .  A
C1536      H1544   1.085       .  S
C1545      C1546   1.399       .  A
C1545      C1550   1.399       .  A
C1546      C1547   1.398       .  A
C1546      H1559   1.083       .  S
C1547      C1548   1.415       .  A
C1547      H1560   1.078       .  S
C1548      C1554   1.432       .  A
C1548      C1549   1.424       .  A
C1549      C1551   1.399       .  A
C1549      C1550   1.406       .  A
C1550      H1561   1.085       .  S
C1551      C1552   1.390       .  A
C1551      H1562   1.084       .  S
C1552      C1553   1.400       .  A
C1552      H1563   1.084       .  S
C1553      C1554   1.422       .  A
C1553      C1558   1.405       .  A
C1554      C1555   1.417       .  A
C1555      C1556   1.400       .  A
C1555      H1564   1.078       .  S
C1556      C1557   1.400       .  A
C1556      H1565   1.083       .  S
C1557      C1558   1.402       .  A
C1558      H1566   1.084       .  S
C1567      C1568   1.400       .  A
C1567      C1572   1.403       .  A
C1568      C1569   1.398       .  A
C1568      H1581   1.083       .  S
C1569      C1570   1.416       .  A
C1569      H1582   1.076       .  S
C1570      C1576   1.433       .  A
C1570      C1571   1.423       .  A
C1571      C1573   1.400       .  A
C1571      C1572   1.407       .  A
C1572      H1583   1.085       .  S
C1573      C1574   1.391       .  A
C1573      H1584   1.084       .  S
C1574      C1575   1.400       .  A
C1574      H1585   1.083       .  S
C1575      C1576   1.423       .  A
C1575      C1580   1.408       .  A
C1576      C1577   1.416       .  A
C1577      C1578   1.398       .  A
C1577      H1586   1.076       .  S
C1578      C1579   1.400       .  A
C1578      H1587   1.084       .  S
C1579      C1580   1.402       .  A
C1580      H1588   1.084       .  S
C1589      C1590   1.401       .  A
C1589      C1594   1.402       .  A
C1590      C1591   1.396       .  A
C1590      H1603   1.083       .  S
C1591      C1592   1.415       .  A
C1591      H1604   1.077       .  S
C1592      C1598   1.430       .  A
C1592      C1593   1.422       .  A
C1593      C1595   1.400       .  A
C1593      C1594   1.405       .  A
C1594      H1605   1.084       .  S
C1595      C1596   1.390       .  A
C1595      H1606   1.083       .  S
C1596      C1597   1.399       .  A
C1596      H1607   1.084       .  S
C1597      C1598   1.423       .  A
C1597      C1602   1.407       .  A
C1598      C1599   1.414       .  A
C1599      C1600   1.396       .  A
C1599      H1608   1.077       .  S
C1600      C1601   1.401       .  A
C1600      H1609   1.083       .  S
C1601      C1602   1.401       .  A
C1602      H1610   1.085       .  S
C1611      C1612   1.401       .  A
C1611      C1616   1.403       .  A
C1612      C1613   1.401       .  A
C1612      H1625   1.083       .  S
C1613      C1614   1.416       .  A
C1613      H1626   1.077       .  S
C1614      C1620   1.436       .  A
C1614      C1615   1.423       .  A
C1615      C1617   1.400       .  A
C1615      C1616   1.408       .  A
C1616      H1627   1.084       .  S
C1617      C1618   1.391       .  A
C1617      H1628   1.084       .  S
C1618      C1619   1.400       .  A
C1618      H1629   1.084       .  S
C1619      C1620   1.423       .  A
C1619      C1624   1.409       .  A
C1620      C1621   1.416       .  A
C1621      C1622   1.401       .  A
C1621      H1630   1.077       .  S
C1622      C1623   1.401       .  A
C1622      H1631   1.083       .  S
C1623      C1624   1.403       .  A
C1624      H1632   1.085       .  S
C1633      C1634   1.400       .  A
C1633      C1638   1.401       .  A
C1634      C1635   1.399       .  A
C1634      H1647   1.083       .  S
C1635      C1636   1.416       .  A
C1635      H1648   1.078       .  S
C1636      C1642   1.433       .  A
C1636      C1637   1.423       .  A
C1637      C1639   1.399       .  A
C1637      C1638   1.406       .  A
C1638      H1649   1.085       .  S
C1639      C1640   1.390       .  A
C1639      H1650   1.084       .  S
C1640      C1641   1.399       .  A
C1640      H1651   1.084       .  S
C1641      C1642   1.423       .  A
C1641      C1646   1.407       .  A
C1642      C1643   1.416       .  A
C1643      C1644   1.400       .  A
C1643      H1652   1.078       .  S
C1644      C1645   1.401       .  A
C1644      H1653   1.083       .  S
C1645      C1646   1.400       .  A
C1646      H1654   1.084       .  S
C1655      C1656   1.401       .  A
C1655      C1660   1.402       .  A
C1656      C1657   1.400       .  A
C1656      H1669   1.083       .  S
C1657      C1658   1.416       .  A
C1657      H1670   1.078       .  S
C1658      C1664   1.433       .  A
C1658      C1659   1.422       .  A
C1659      C1661   1.400       .  A
C1659      C1660   1.407       .  A
C1660      H1671   1.085       .  S
C1661      C1662   1.391       .  A
C1661      H1672   1.084       .  S
C1662      C1663   1.400       .  A
C1662      H1673   1.084       .  S
C1663      C1664   1.422       .  A
C1663      C1668   1.408       .  A
C1664      C1665   1.414       .  A
C1665      C1666   1.398       .  A
C1665      H1674   1.078       .  S
C1666      C1667   1.403       .  A
C1666      H1675   1.083       .  S
C1667      C1668   1.404       .  A
C1668      H1676   1.084       .  S
C1677      C1678   1.402       .  A
C1677      C1682   1.400       .  A
C1678      C1679   1.399       .  A
C1678      H1691   1.083       .  S
C1679      C1680   1.415       .  A
C1679      H1692   1.078       .  S
C1680      C1686   1.434       .  A
C1680      C1681   1.424       .  A
C1681      C1683   1.398       .  A
C1681      C1682   1.406       .  A
C1682      H1693   1.085       .  S
C1683      C1684   1.389       .  A
C1683      H1694   1.084       .  S
C1684      C1685   1.399       .  A
C1684      H1695   1.084       .  S
C1685      C1686   1.422       .  A
C1685      C1690   1.405       .  A
C1686      C1687   1.417       .  A
C1687      C1688   1.401       .  A
C1687      H1696   1.078       .  S
C1688      C1689   1.400       .  A
C1688      H1697   1.083       .  S
C1689      C1690   1.402       .  A
C1690      H1698   1.084       .  S
C1699      C1700   1.401       .  A
C1699      C1704   1.401       .  A
C1700      C1701   1.397       .  A
C1700      H1713   1.083       .  S
C1701      C1702   1.415       .  A
C1701      H1714   1.077       .  S
C1702      C1708   1.433       .  A
C1702      C1703   1.424       .  A
C1703      C1705   1.400       .  A
C1703      C1704   1.408       .  A
C1704      H1715   1.085       .  S
C1705      C1706   1.391       .  A
C1705      H1716   1.084       .  S
C1706      C1707   1.400       .  A
C1706      H1717   1.084       .  S
C1707      C1708   1.423       .  A
C1707      C1712   1.407       .  A
C1708      C1709   1.416       .  A
C1709      C1710   1.399   1_565  A
C1709      H1718   1.077       .  S
C1710      C1711   1.400   1_545  A
C1710      H1719   1.083       .  S
C1711      C1712   1.402       .  A
C1712      H1720   1.084       .  S
C1721      C1722   1.401       .  A
C1721      C1726   1.404       .  A
C1722      C1723   1.394       .  A
C1722      H1735   1.083       .  S
C1723      C1724   1.413       .  A
C1723      H1736   1.078       .  S
C1724      C1730   1.428       .  A
C1724      C1725   1.421       .  A
C1725      C1727   1.400       .  A
C1725      C1726   1.405       .  A
C1726      H1737   1.083       .  S
C1727      C1728   1.392       .  A
C1727      H1738   1.084       .  S
C1728      C1729   1.401       .  A
C1728      H1739   1.084       .  S
C1729      C1730   1.422       .  A
C1729      C1734   1.408       .  A
C1730      C1731   1.414       .  A
C1731      C1732   1.395       .  A
C1731      H1740   1.078       .  S
C1732      C1733   1.399       .  A
C1732      H1741   1.083       .  S
C1733      C1734   1.404       .  A
C1734      H1742   1.084       .  S
C1743      C1744   1.399       .  A
C1743      C1748   1.400       .  A
C1744      C1745   1.399       .  A
C1744      H1757   1.083       .  S
C1745      C1746   1.416       .  A
C1745      H1758   1.078       .  S
C1746      C1752   1.428       .  A
C1746      C1747   1.422       .  A
C1747      C1749   1.399       .  A
C1747      C1748   1.402       .  A
C1748      H1759   1.085       .  S
C1749      C1750   1.389       .  A
C1749      H1760   1.084       .  S
C1750      C1751   1.399       .  A
C1750      H1761   1.084       .  S
C1751      C1752   1.421       .  A
C1751      C1756   1.402       .  A
C1752      C1753   1.413       .  A
C1753      C1754   1.397       .  A
C1753      H1762   1.078       .  S
C1754      C1755   1.403       .  A
C1754      H1763   1.083       .  S
C1755      C1756   1.403       .  A
C1756      H1764   1.081       .  S
C1765      C1766   1.400       .  A
C1765      C1770   1.402       .  A
C1766      C1767   1.398       .  A
C1766      H1779   1.083       .  S
C1767      C1768   1.416       .  A
C1767      H1780   1.077       .  S
C1768      C1774   1.431       .  A
C1768      C1769   1.422       .  A
C1769      C1771   1.400       .  A
C1769      C1770   1.406       .  A
C1770      H1781   1.084   1_565  S
C1771      C1772   1.390       .  A
C1771      H1782   1.084   1_565  S
C1772      C1773   1.399       .  A
C1772      H1783   1.084       .  S
C1773      C1774   1.423       .  A
C1773      C1778   1.406       .  A
C1774      C1775   1.415       .  A
C1775      C1776   1.397       .  A
C1775      H1784   1.077       .  S
C1776      C1777   1.400       .  A
C1776      H1785   1.083       .  S
C1777      C1778   1.402       .  A
C1778      H1786   1.085       .  S
C1787      C1788   1.400       .  A
C1787      C1792   1.400       .  A
C1788      C1789   1.399       .  A
C1788      H1801   1.084       .  S
C1789      C1790   1.416       .  A
C1789      H1802   1.077       .  S
C1790      C1796   1.432       .  A
C1790      C1791   1.423       .  A
C1791      C1793   1.399       .  A
C1791      C1792   1.405       .  A
C1792      H1803   1.084       .  S
C1793      C1794   1.389       .  A
C1793      H1804   1.084       .  S
C1794      C1795   1.399       .  A
C1794      H1805   1.084       .  S
C1795      C1796   1.423       .  A
C1795      C1800   1.404       .  A
C1796      C1797   1.416       .  A
C1797      C1798   1.399       .  A
C1797      H1806   1.077       .  S
C1798      C1799   1.401       .  A
C1798      H1807   1.083       .  S
C1799      C1800   1.400       .  A
C1800      H1808   1.085       .  S
C1809      C1810   1.401       .  A
C1809      C1814   1.402       .  A
C1810      C1811   1.399       .  A
C1810      H1823   1.083       .  S
C1811      C1812   1.415       .  A
C1811      H1824   1.077       .  S
C1812      C1818   1.434       .  A
C1812      C1813   1.423       .  A
C1813      C1815   1.400       .  A
C1813      C1814   1.409       .  A
C1814      H1825   1.085       .  S
C1815      C1816   1.391       .  A
C1815      H1826   1.084   1_545  S
C1816      C1817   1.400       .  A
C1816      H1827   1.084       .  S
C1817      C1818   1.423       .  A
C1817      C1822   1.408       .  A
C1818      C1819   1.416       .  A
C1819      C1820   1.398       .  A
C1819      H1828   1.077       .  S
C1820      C1821   1.402       .  A
C1820      H1829   1.083       .  S
C1821      C1822   1.402       .  A
C1822      H1830   1.085       .  S
C1831      C1832   1.400       .  A
C1831      C1836   1.401       .  A
C1832      C1833   1.398       .  A
C1832      H1845   1.083       .  S
C1833      C1834   1.416       .  A
C1833      H1846   1.078       .  S
C1834      C1840   1.431       .  A
C1834      C1835   1.422       .  A
C1835      C1837   1.400       .  A
C1835      C1836   1.405       .  A
C1836      H1847   1.084       .  S
C1837      C1838   1.390       .  A
C1837      H1848   1.084       .  S
C1838      C1839   1.399       .  A
C1838      H1849   1.084       .  S
C1839      C1840   1.423       .  A
C1839      C1844   1.405       .  A
C1840      C1841   1.416       .  A
C1841      C1842   1.397       .  A
C1841      H1850   1.078       .  S
C1842      C1843   1.398       .  A
C1842      H1851   1.083       .  S
C1843      C1844   1.400       .  A
C1844      H1852   1.085       .  S
C1853      C1854   1.402       .  A
C1853      C1858   1.401       .  A
C1854      C1855   1.404       .  A
C1854      H1867   1.083       .  S
C1855      C1856   1.418       .  A
C1855      H1868   1.078       .  S
C1856      C1862   1.436       .  A
C1856      C1857   1.422       .  A
C1857      C1859   1.399       .  A
C1857      C1858   1.405       .  A
C1858      H1869   1.084       .  S
C1859      C1860   1.388       .  A
C1859      H1870   1.084       .  S
C1860      C1861   1.398       .  A
C1860      H1871   1.084       .  S
C1861      C1862   1.424       .  A
C1861      C1866   1.405       .  A
C1862      C1863   1.416       .  A
C1863      C1864   1.401       .  A
C1863      H1872   1.078       .  S
C1864      C1865   1.402       .  A
C1864      H1873   1.083       .  S
C1865      C1866   1.400       .  A
C1866      H1874   1.085       .  S
C1875      C1876   1.401       .  A
C1875      C1880   1.399       .  A
C1876      C1877   1.397       .  A
C1876      H1889   1.083   1_545  S
C1877      C1878   1.415       .  A
C1877      H1890   1.077   1_545  S
C1878      C1884   1.430       .  A
C1878      C1879   1.422       .  A
C1879      C1881   1.399       .  A
C1879      C1880   1.403       .  A
C1880      H1891   1.085       .  S
C1881      C1882   1.389       .  A
C1881      H1892   1.084       .  S
C1882      C1883   1.399       .  A
C1882      H1893   1.084       .  S
C1883      C1884   1.423       .  A
C1883      C1888   1.406       .  A
C1884      C1885   1.415       .  A
C1885      C1886   1.397       .  A
C1885      H1894   1.077       .  S
C1886      C1887   1.400       .  A
C1886      H1895   1.083       .  S
C1887      C1888   1.400       .  A
C1888      H1896   1.084       .  S
C1897      C1898   1.399       .  A
C1897      C1902   1.403       .  A
C1898      C1899   1.395       .  A
C1898      H1911   1.083       .  S
C1899      C1900   1.414       .  A
C1899      H1912   1.077       .  S
C1900      C1906   1.429       .  A
C1900      C1901   1.422       .  A
C1901      C1903   1.401       .  A
C1901      C1902   1.409       .  A
C1902      H1913   1.084       .  S
C1903      C1904   1.393       .  A
C1903      H1914   1.084       .  S
C1904      C1905   1.401       .  A
C1904      H1915   1.084       .  S
C1905      C1906   1.422       .  A
C1905      C1910   1.408       .  A
C1906      C1907   1.414       .  A
C1907      C1908   1.394       .  A
C1907      H1916   1.077   1_545  S
C1908      C1909   1.399       .  A
C1908      H1917   1.083   1_545  S
C1909      C1910   1.404       .  A
C1910      H1918   1.085       .  S
C1919      C1920   1.397       .  A
C1919      C1924   1.398       .  A
C1920      C1921   1.397       .  A
C1920      H1933   1.083   1_545  S
C1921      C1922   1.416       .  A
C1921      H1934   1.077   1_545  S
C1922      C1928   1.430       .  A
C1922      C1923   1.424       .  A
C1923      C1925   1.399       .  A
C1923      C1924   1.403       .  A
C1924      H1935   1.085       .  S
C1925      C1926   1.389       .  A
C1925      H1936   1.084       .  S
C1926      C1927   1.399       .  A
C1926      H1937   1.084       .  S
C1927      C1928   1.422       .  A
C1927      C1932   1.403       .  A
C1928      C1929   1.416       .  A
C1929      C1930   1.398       .  A
C1929      H1938   1.077   1_545  S
C1930      C1931   1.399       .  A
C1930      H1939   1.083   1_545  S
C1931      C1932   1.401       .  A
C1932      H1940   1.085       .  S
C1941      C1942   1.397       .  A
C1941      C1946   1.399       .  A
C1942      C1943   1.395       .  A
C1942      H1955   1.083       .  S
C1943      C1944   1.416       .  A
C1943      H1956   1.078       .  S
C1944      C1950   1.429       .  A
C1944      C1945   1.422       .  A
C1945      C1947   1.400   1_545  A
C1945      C1946   1.405       .  A
C1946      H1957   1.085   1_545  S
C1947      C1948   1.391       .  A
C1947      H1958   1.084       .  S
C1948      C1949   1.400   1_565  A
C1948      H1959   1.084       .  S
C1949      C1950   1.423       .  A
C1949      C1954   1.407       .  A
C1950      C1951   1.414       .  A
C1951      C1952   1.394       .  A
C1951      H1960   1.078       .  S
C1952      C1953   1.399       .  A
C1952      H1961   1.083       .  S
C1953      C1954   1.401       .  A
C1954      H1962   1.085   1_545  S
