geometry optimzed in LAMMPS
_audit_creation_date              2020-11-30 
_audit_creation_method            'lammps2cif' 
_symmetry_space_group_name_H-M    'P1' 
_symmetry_Int_Tables_number       1 
_symmetry_cell_setting            triclinic 
loop_ 
_symmetry_equiv_pos_as_xyz 
  x,y,z 
_cell_length_a                    39.27229688 
_cell_length_b                    38.92130712703429 
_cell_length_c                    29.46667539854699 
_cell_angle_alpha                 89.94805353790855 
_cell_angle_beta                  90.69547815802721 
_cell_angle_gamma                 90.06617157644318 
loop_ 
_atom_site_label 
_atom_site_type_symbol 
_atom_site_fract_x 
_atom_site_fract_y 
_atom_site_fract_z 
_atom_site_charge 
O1          O  0.25215713  0.18411386  0.36864624    -0.80800
O2          O  0.26329663  0.19156545  0.63069943    -0.82300
O3          O  0.30937335  0.15356402  0.48376601    -0.79300
O4          O  0.19830869  0.15052570  0.49936468    -0.77700
O5          O  0.15737827  0.19186656  0.50050954    -0.79500
O6          O  0.35154510  0.19362844  0.48441249    -0.80400
O7          O  0.26150201  0.15053584  0.57474686    -0.81800
O8          O  0.25117500  0.14652361  0.42882756    -0.82100
Eu9        Eu  0.25484162  0.17890066  0.49945038     2.39200
O10         O  0.22321358  0.21373786  0.54778890    -0.89600
O11         O  0.28754710  0.21275743  0.44976366    -0.93200
C12         C  0.25085102  0.15329135  0.38604415     1.01500
C13         C  0.26353778  0.15975735  0.61694945     1.01300
C14         C  0.34062007  0.16248770  0.48077920     1.01300
C15         C  0.16688780  0.16034226  0.50007332     0.99100
H16         H  0.30695690  0.20011388  0.56055624     0.28900
O17         O  0.29136795  0.21433892  0.54332368    -1.02000
H18         H  0.20541950  0.19705867  0.43385161     0.28900
O19         O  0.22033411  0.21184565  0.45090618    -1.04500
O20         O  0.25964885  0.31027812  0.62446222    -0.81700
O21         O  0.25285655  0.30168190  0.35870477    -0.81300
O22         O  0.35655979  0.24735420  0.56236189    -0.79700
O23         O  0.16059979  0.24417253  0.57307034    -0.83000
O24         O  0.15710294  0.24480881  0.42689406    -0.80900
O25         O  0.35118300  0.25059307  0.42095689    -0.79500
O26         O  0.30421328  0.34876753  0.49030029    -0.81100
O27         O  0.19796025  0.34252275  0.49832881    -0.83000
O28         O  0.34645520  0.30843145  0.49138849    -0.79700
O29         O  0.15803753  0.30071970  0.50301292    -0.82400
O30         O  0.32051763  0.25246528  0.62226041    -0.78100
O31         O  0.31182460  0.24903620  0.36349330    -0.78200
O32         O  0.19368819  0.24666118  0.36706312    -0.77800
O33         O  0.20130674  0.24730412  0.62951907    -0.81300
O34         O  0.25319338  0.34669791  0.56480486    -0.80700
O35         O  0.25098168  0.34127196  0.41607855    -0.79100
Eu36       Eu  0.25945657  0.24962051  0.59279701     2.39800
Eu37       Eu  0.25320613  0.24498325  0.39930468     2.39600
Eu38       Eu  0.32277435  0.24910077  0.49324110     2.38400
Eu39       Eu  0.18779010  0.24609442  0.49922355     2.39900
Eu40       Eu  0.25305038  0.31526617  0.49294708     2.39800
O41         O  0.21871717  0.27970915  0.44741385    -0.93500
O42         O  0.29022409  0.28393306  0.54083710    -0.92400
C43         C  0.25639714  0.34114252  0.60764475     1.01700
C44         C  0.25133006  0.33304110  0.37345814     1.00400
C45         C  0.35092095  0.25056573  0.60494441     0.99800
C46         C  0.16980609  0.24501013  0.61513433     1.01800
C47         C  0.16329114  0.24623234  0.38413730     1.00700
C48         C  0.34312402  0.25133117  0.37866222     0.99600
C49         C  0.33548611  0.33975109  0.48953484     0.99600
C50         C  0.16708042  0.33240334  0.50214751     1.02300
H51         H  0.30066004  0.29630961  0.42668053     0.29600
O52         O  0.28699124  0.28138151  0.44575487    -1.05600
H53         H  0.20841968  0.29588753  0.56300762     0.31700
O54         O  0.22256025  0.28150111  0.54433146    -1.08200
N55         N  0.45244771  0.99706753  0.45931644    -0.37200
N56         N  0.00150359  0.44467720  0.46477037    -0.57800
N57         N  0.05129331  0.99449800  0.49984807    -0.37200
N58         N  0.00130692  0.04791047  0.49236312    -0.57800
C59         C  0.43401913  0.47348323  0.45997380     0.26300
C60         C  0.43557799  0.02666142  0.45194263     0.26300
C61         C  0.07210180  0.46628552  0.49457670     0.26300
C62         C  0.07167423  0.02259777  0.50364024     0.26300
C63         C  0.47502823  0.42581872  0.46334005     0.35000
C64         C  0.02839496  0.42341162  0.46617427     0.35000
C65         C  0.47385818  0.06506097  0.49693559     0.35000
C66         C  0.02614572  0.06519623  0.51435391     0.35000
C67         C  0.40489974  0.48732462  0.44057713    -0.22500
C68         C  0.40664880  0.02025688  0.42559829    -0.22500
C69         C  0.10510875  0.47517117  0.50798125    -0.22500
C70         C  0.10536398  0.01234762  0.50314735    -0.22500
C71         C  0.48461003  0.39229587  0.45491406    -0.23600
C72         C  0.01815431  0.39037030  0.45418735    -0.23600
C73         C  0.48063549  0.09426042  0.52248921    -0.23600
C74         C  0.01349748  0.09511023  0.53308491    -0.23600
C75         C  0.44162680  0.43827432  0.46083932    -0.18900
C76         C  0.44315757  0.05814440  0.47352709    -0.18900
C77         C  0.06072459  0.05686936  0.51086781    -0.18900
C78         C  0.06114954  0.43246133  0.48272007    -0.18900
H79         H  0.38500670  0.47380083  0.42215274     0.14000
H80         H  0.38730620  0.03848771  0.41507354     0.14000
H81         H  0.12658433  0.45852574  0.51458626     0.14000
H82         H  0.12805940  0.02797920  0.50531607     0.14000
H83         H  0.46844408  0.37096572  0.44506567     0.12300
H84         H  0.03378314  0.36757382  0.45180803     0.12300
H85         H  0.46343035  0.11517944  0.52981928     0.12300
H86         H  0.02765401  0.11474623  0.55123663     0.12300
H87         H  0.47134223  0.99327750  0.48361347     0.25500
H88         H  0.02515945  0.99353043  0.50303172     0.25500
O89         O  0.49905350  0.43584689  0.87266926    -0.80800
O90         O  0.48913246  0.43589123  0.12969800    -0.82300
O91         O  0.05481311  0.40862959  0.99980447    -0.79300
O92         O  0.44170890  0.39816105  0.00008967    -0.77700
O93         O  0.39766018  0.43650286  0.99680744    -0.79500
O94         O  0.09254025  0.45320904  0.00414486    -0.80400
O95         O  0.49528000  0.39855576  0.07025470    -0.81800
O96         O  0.49560504  0.39802696  0.93129881    -0.82100
Eu97       Eu  0.49455899  0.43075219  0.00022540     2.39200
O98         O  0.45629042  0.46178347  0.04528422    -0.89600
O99         O  0.02810514  0.46687266  0.95514183    -0.93200
C100        C  0.49902057  0.40445407  0.88907238     1.01500
C101        C  0.49295272  0.40506493  0.11278225     1.01300
C102        C  0.08536559  0.42112895  0.00122550     1.01300
C103        C  0.40992042  0.40592675  0.99899855     0.99100
H104        H  0.04043128  0.45354295  0.06932573     0.28900
O105        O  0.02528168  0.46725247  0.05085403    -1.02000
H106        H  0.44582324  0.44627597  0.93186617     0.28900
O107        O  0.45878362  0.46206485  0.95066094    -1.04500
O108        O  0.48522028  0.05652650  0.13340004    -0.81700
O109        O  0.48637885  0.05894589  0.87357553    -0.81300
O110        O  0.08533195  0.50472925  0.07675157    -0.79700
O111        O  0.38832253  0.49320097  0.06691418    -0.83000
O112        O  0.39428369  0.49250809  0.92015309    -0.80900
O113        O  0.08840004  0.00760948  0.93161452    -0.79500
O114        O  0.03553338  0.10153426  0.01080447    -0.81100
O115        O  0.42891194  0.08952891  0.01031960    -0.83000
O116        O  0.07992380  0.06381146  0.00900002    -0.79700
O117        O  0.39082808  0.04520722  0.00687867    -0.82400
O118        O  0.04585854  0.50421229  0.13321232    -0.78100
O119        O  0.05128186  0.00633338  0.87177670    -0.78200
O120        O  0.43554743  0.99577309  0.86750276    -0.77800
O121        O  0.42504668  0.49535830  0.12707743    -0.81300
O122        O  0.48561017  0.09432407  0.07478874    -0.80700
O123        O  0.48420174  0.09728656  0.93171241    -0.79100
Eu124      Eu  0.48603209  0.49702289  0.09793748     2.39800
Eu125      Eu  0.49263293  0.99841609  0.90536248     2.39600
Eu126      Eu  0.05737798  0.50439862  0.00417500     2.38400
Eu127      Eu  0.42112199  0.49422573  0.99603284     2.39900
Eu128      Eu  0.48553035  0.06507413  0.00279857     2.39800
O129        O  0.45464692  0.02900729  0.95343008    -0.93500
O130        O  0.02120723  0.03446778  0.05175689    -0.92400
C131        C  0.48402849  0.08781846  0.11724147     1.01700
C132        C  0.48419714  0.09027616  0.88906293     1.00400
C133        C  0.07703434  0.50561953  0.11857175     0.99800
C134        C  0.39416399  0.49441370  0.11006923     1.01800
C135        C  0.40459482  0.99378755  0.88219690     1.00700
C136        C  0.08201048  0.00851518  0.88871433     0.99600
C137        C  0.06733433  0.09424579  0.01184849     0.99600
C138        C  0.39863859  0.07711978  0.01183711     1.02300
H139        H  0.03617025  0.05315740  0.93818544     0.29600
O140        O  0.02263079  0.03694713  0.95504443    -1.05600
H141        H  0.43946605  0.04071951  0.06777281     0.31700
O142        O  0.45482061  0.02755242  0.04920190    -1.08200
N143        N  0.29294367  0.24233587  0.02193464    -0.37200
N144        N  0.23719907  0.19602693  0.03714929    -0.57800
N145        N  0.19005984  0.25147504  0.00955832    -0.37200
N146        N  0.24568088  0.29769527  0.99880578    -0.57800
C147        C  0.31014352  0.21525851  0.03941941     0.26300
C148        C  0.31432299  0.26945615  0.02267281     0.26300
C149        C  0.16852742  0.22730322  0.02507631     0.26300
C150        C  0.17320187  0.28183531  0.01050004     0.26300
C151        C  0.26280746  0.17293274  0.04020404     0.35000
C152        C  0.20822345  0.17761783  0.03264362     0.35000
C153        C  0.27509974  0.31369083  0.98941704     0.35000
C154        C  0.22051548  0.31927943  0.98605428     0.35000
C155        C  0.34305015  0.22514628  0.05091634    -0.22500
C156        C  0.34552657  0.25955202  0.04107054    -0.22500
C157        C  0.13740596  0.24213364  0.03493421    -0.22500
C158        C  0.14048499  0.27664799  0.02625182    -0.22500
C159        C  0.24989757  0.13978072  0.04026764    -0.23600
C160        C  0.21524089  0.14274492  0.03533162    -0.23600
C161        C  0.26862016  0.34557474  0.96994054    -0.23600
C162        C  0.23390226  0.34920231  0.96812766    -0.23600
C163        C  0.29780802  0.18127137  0.04101677    -0.18900
C164        C  0.30739532  0.30218490  0.00408935    -0.18900
C165        C  0.18600485  0.31387062  0.99580829    -0.18900
C166        C  0.17536307  0.19183096  0.02743596    -0.18900
H167        H  0.36333658  0.20922096  0.06441850     0.14000
H168        H  0.36814736  0.27517511  0.04547383     0.14000
H169        H  0.11480654  0.22943699  0.04727577     0.14000
H170        H  0.12068953  0.29566190  0.03049244     0.14000
H171        H  0.26402835  0.11596968  0.04274619     0.12300
H172        H  0.19729001  0.12164502  0.03362276     0.12300
H173        H  0.28698406  0.36487265  0.96009504     0.12300
H174        H  0.22015111  0.37168719  0.95647102     0.12300
H175        H  0.26977479  0.24123724  0.00479416     0.25500
H176        H  0.21322660  0.24642236  0.99432709     0.25500
C177        C  0.03338245  0.24670681  0.27897667     0.85900
C178        C  0.02851635  0.21477080  0.24920925    -0.54400
C179        C  0.50111337  0.21438835  0.22364097     0.08800
C180        C  0.47902935  0.24743838  0.22913390     0.19700
C181        C  0.02969237  0.27760575  0.24740637    -0.55100
C182        C  0.50279819  0.27885662  0.22090528     0.08900
C183        C  0.50153428  0.24770796  0.30669743    -0.54600
C184        C  0.47189014  0.24842425  0.28059117     0.09500
H185        H  0.04498476  0.19250393  0.25179307     0.14000
H186        H  0.45582002  0.24793909  0.20743637    -0.00300
H187        H  0.04858984  0.29802040  0.24687680     0.14300
H188        H  0.50122067  0.24759579  0.34351908     0.14100
C189        C  0.20330892  0.50072842  0.22755240     0.85900
C190        C  0.20781554  0.46658166  0.25239905    -0.54400
C191        C  0.23688350  0.46343373  0.27745928     0.08800
C192        C  0.26019587  0.49607659  0.27473301     0.19700
C193        C  0.21130128  0.02171033  0.25772811    -0.55100
C194        C  0.23902765  0.02311186  0.28561330     0.08900
C195        C  0.23624382  0.50174751  0.19865582    -0.54600
C196        C  0.26714792  0.50029399  0.22253860     0.09500
H197        H  0.19062818  0.44498527  0.24779789     0.14000
H198        H  0.28199052  0.49478399  0.29803422    -0.00300
H199        H  0.19244365  0.04209217  0.25663338     0.14300
H200        H  0.23460869  0.50171153  0.16194426     0.14100
C201        C  0.04308465  0.24651026  0.72324954     0.85900
C202        C  0.04037842  0.27663406  0.75665654    -0.54400
C203        C  0.50798538  0.27803724  0.77794681     0.08800
C204        C  0.48262784  0.24834564  0.76633434     0.19700
C205        C  0.03593419  0.21545891  0.75443226    -0.55100
C206        C  0.50244715  0.21389385  0.77632292     0.08900
C207        C  0.50945738  0.24642336  0.69247394    -0.54600
C208        C  0.47854873  0.24904725  0.71378052     0.09500
H209        H  0.06154938  0.29331366  0.76545373     0.14000
H210        H  0.45820313  0.25135161  0.78413515    -0.00300
H211        H  0.05369138  0.19433879  0.75874217     0.14300
H212        H  0.51162582  0.24445885  0.65591977     0.14100
C213        C  0.21102378  0.49766185  0.78187923     0.85900
C214        C  0.21821247  0.03528001  0.75662854    -0.54400
C215        C  0.24556381  0.03426222  0.72821556     0.08800
C216        C  0.26442156  0.49776539  0.72848291     0.19700
C217        C  0.21195176  0.46804968  0.74751091    -0.55100
C218        C  0.23966732  0.46673070  0.72026206     0.08900
C219        C  0.24578047  0.49328793  0.80717658    -0.54600
C220        C  0.27398162  0.49431807  0.77949111     0.09500
H221        H  0.20400928  0.05851626  0.76305007     0.14000
H222        H  0.28669544  0.49690855  0.70597575    -0.00300
H223        H  0.19384211  0.44705790  0.74822476     0.14300
H224        H  0.24813745  0.49025551  0.84366706     0.14100
C225        C  0.13782108  0.48821456  0.21777793    -0.02500
C226        C  0.16826026  0.50492290  0.20289608     0.07200
C227        C  0.17085383  0.01997008  0.16197072    -0.02600
C228        C  0.13996298  0.02278717  0.13732259    -0.02600
C229        C  0.10652877  0.50813508  0.15065879     0.07300
C230        C  0.10804612  0.48815487  0.19039120    -0.02800
Br231      Br  0.07056122  0.45814394  0.20590149    -0.01300
Br232      Br  0.13223801  0.47240537  0.27933136    -0.01400
Br233      Br  0.13742659  0.05625149  0.08873044    -0.01400
Br234      Br  0.20393042  0.05569091  0.15253409    -0.01400
C235        C  0.36431339  0.48877057  0.18854165    -0.02500
C236        C  0.36278121  0.49590384  0.14105707     0.07200
C237        C  0.33892915  0.01060686  0.13321569    -0.02600
C238        C  0.31232377  0.01689370  0.16349146    -0.02600
C239        C  0.30215887  0.50109777  0.19799232     0.07300
C240        C  0.33418229  0.48877703  0.21579978    -0.02800
Br241      Br  0.34006220  0.47273704  0.27740354    -0.01300
Br242      Br  0.40749333  0.47818210  0.21763281    -0.01400
Br243      Br  0.28788413  0.05929911  0.15616276    -0.01400
Br244      Br  0.33068971  0.02551622  0.07156546    -0.01400
C245        C  0.02239696  0.31912292  0.16085748    -0.02500
C246        C  0.49696356  0.30898097  0.18921162     0.07200
C247        C  0.46815608  0.33092442  0.19204958    -0.02600
C248        C  0.46771904  0.36326295  0.16952039    -0.02600
C249        C  0.49529500  0.37372818  0.14250226     0.07300
C250        C  0.02226097  0.35157214  0.13940588    -0.02800
Br251      Br  0.06073133  0.36442671  0.10310073    -0.01300
Br252      Br  0.05912047  0.28748224  0.14843763    -0.01400
Br253      Br  0.42830201  0.39247796  0.17327969    -0.01400
Br254      Br  0.42828596  0.31700147  0.22456784    -0.01400
C255        C  0.98186320  0.18224596  0.15222820    -0.02500
C256        C  0.49135347  0.18210173  0.19819767     0.07200
C257        C  0.49050403  0.14955546  0.22026406    -0.02600
C258        C  0.48594346  0.11868503  0.19510237    -0.02600
C259        C  0.48172469  0.11972152  0.14725593     0.07300
C260        C  0.97535369  0.15157587  0.12809975    -0.02800
Br261      Br  0.95670000  0.15725689  0.06720595    -0.01300
Br262      Br  0.98240156  0.22562619  0.12016719    -0.01400
Br263      Br  0.48270087  0.07575227  0.22769138    -0.01400
Br264      Br  0.49433834  0.14691927  0.28568880    -0.01400
C265        C  0.14456887  0.35318328  0.95591614    -0.02500
C266        C  0.16280026  0.34405099  0.99555170     0.07200
C267        C  0.15940883  0.36392286  0.03524425    -0.02600
C268        C  0.13526005  0.39058210  0.03663139    -0.02600
C269        C  0.11422630  0.39699254  0.99845355     0.07300
C270        C  0.12119786  0.38052617  0.95705463    -0.02800
Br271      Br  0.10199038  0.39848552  0.90132589    -0.01300
Br272      Br  0.15173887  0.32832636  0.90031173    -0.01400
Br273      Br  0.13225498  0.41928693  0.08982655    -0.01400
Br274      Br  0.18784955  0.35435042  0.08762200    -0.01400
C275        C  0.38434615  0.35254385  0.96737420    -0.02500
C276        C  0.38546160  0.37788840  0.00147879     0.07200
C277        C  0.36211645  0.37732482  0.03739115    -0.02600
C278        C  0.33714747  0.35183596  0.03876267    -0.02600
C279        C  0.33521014  0.32737643  0.00379317     0.07300
C280        C  0.35869205  0.32752453  0.96816482    -0.02800
Br281      Br  0.35449825  0.29444932  0.91966446    -0.01300
Br282      Br  0.41670272  0.35294686  0.91854665    -0.01400
Br283      Br  0.30502240  0.35074821  0.08798584    -0.01400
Br284      Br  0.36440462  0.41101478  0.08527596    -0.01400
C285        C  0.36538084  0.11340449  0.06493291    -0.02500
C286        C  0.37111968  0.10142662  0.02049972     0.07200
C287        C  0.35168023  0.11394994  0.98394197    -0.02600
C288        C  0.32772311  0.13993947  0.99107125    -0.02600
C289        C  0.32277988  0.15310535  0.03512610     0.07300
C290        C  0.34131461  0.13950877  0.07225031    -0.02800
Br291      Br  0.33415319  0.15698173  0.13261640    -0.01300
Br292      Br  0.38939361  0.09300522  0.11577571    -0.01400
Br293      Br  0.30208140  0.15796218  0.94005165    -0.01400
Br294      Br  0.35801083  0.09527470  0.92413305    -0.01400
C295        C  0.10641006  0.13574341  0.97642468    -0.02500
C296        C  0.09138631  0.12265439  0.01581737     0.07200
C297        C  0.10109354  0.13509836  0.05889052    -0.02600
C298        C  0.12884820  0.15764546  0.06288072    -0.02600
C299        C  0.14598602  0.16831831  0.02365476     0.07300
C300        C  0.13415458  0.15824610  0.98029913    -0.02800
Br301      Br  0.15584754  0.17532840  0.92636634    -0.01300
Br302      Br  0.08724159  0.12450899  0.91755043    -0.01400
Br303      Br  0.14328527  0.17437079  0.12161600    -0.01400
Br304      Br  0.07571601  0.12209473  0.11190648    -0.01400
C305        C  0.33329031  0.46817778  0.79185361    -0.02500
C306        C  0.30996122  0.49550156  0.79804237     0.07200
C307        C  0.33080428  0.02591760  0.81013169    -0.02600
C308        C  0.36451526  0.02333447  0.82761669    -0.02600
C309        C  0.37551530  0.99297521  0.84929997     0.07300
C310        C  0.36433358  0.46703998  0.81712310    -0.02800
Br311      Br  0.39161084  0.42606896  0.81706699    -0.01300
Br312      Br  0.32391252  0.43296604  0.74782860    -0.01400
Br313      Br  0.39566961  0.06148155  0.82273524    -0.01400
Br314      Br  0.31251294  0.07090136  0.79783714    -0.01400
C315        C  0.14307766  0.02865473  0.87533055    -0.02500
C316        C  0.11301045  0.01206699  0.85856673     0.07200
C317        C  0.11561838  0.48685161  0.81953068    -0.02600
C318        C  0.14510509  0.48780025  0.79219747    -0.02600
C319        C  0.17716713  0.50001630  0.80984857     0.07300
C320        C  0.17404516  0.02741271  0.85118636    -0.02800
Br321      Br  0.21078244  0.05765452  0.87030444    -0.01300
Br322      Br  0.14254852  0.05580792  0.93025922    -0.01400
Br323      Br  0.13693203  0.48100394  0.72779401    -0.01400
Br324      Br  0.07677941  0.46020948  0.79902762    -0.01400
C325        C  0.99529099  0.12137437  0.81126601    -0.02500
C326        C  0.48249517  0.12110629  0.85701938     0.07200
C327        C  0.47093115  0.15386796  0.87258260    -0.02600
C328        C  0.47712052  0.18437632  0.84726018    -0.02600
C329        C  0.49025189  0.18249078  0.80291278     0.07300
C330        C  0.99570318  0.15140283  0.78399980    -0.02800
Br331      Br  0.99071314  0.14626737  0.71936610    -0.01300
Br332      Br  0.00869391  0.07868309  0.78327879    -0.01400
Br333      Br  0.46611287  0.22816470  0.87361628    -0.01400
Br334      Br  0.44260798  0.15747327  0.92565039    -0.01400
C335        C  0.51608137  0.34092772  0.87804387    -0.02500
C336        C  0.50260006  0.37240736  0.85950066     0.07200
C337        C  0.99224271  0.37297170  0.81343203    -0.02600
C338        C  0.98915599  0.34097473  0.79060106    -0.02600
C339        C  0.50225582  0.30898256  0.80817530     0.07300
C340        C  0.51788343  0.31062277  0.85138606    -0.02800
Br341      Br  0.54386725  0.27154971  0.87315025    -0.01300
Br342      Br  0.53385309  0.33744816  0.93959886    -0.01400
Br343      Br  0.96356235  0.33880141  0.73493339    -0.01400
Br344      Br  0.98154358  0.41437622  0.78028898    -0.01400
C345        C  0.41132839  0.27120033  0.62112307    -0.02500
C346        C  0.38235217  0.25204095  0.63478295     0.07200
C347        C  0.38512622  0.23180237  0.67431976    -0.02600
C348        C  0.41573291  0.23120880  0.70047251    -0.02600
C349        C  0.44469858  0.25106615  0.68769938     0.07300
C350        C  0.44153965  0.27169589  0.64787354    -0.02800
Br351      Br  0.47761228  0.30261943  0.62919552    -0.01300
Br352      Br  0.41103390  0.29642680  0.56430165    -0.01400
Br353      Br  0.41694931  0.20044778  0.75167829    -0.01400
Br354      Br  0.34818408  0.20117773  0.68969689    -0.01400
C355        C  0.12933857  0.27453462  0.66760777    -0.02500
C356        C  0.14090240  0.24390289  0.64786242     0.07200
C357        C  0.11905886  0.21509445  0.64853634    -0.02600
C358        C  0.08819152  0.21558698  0.67293537    -0.02600
C359        C  0.07710110  0.24583661  0.69563710     0.07300
C360        C  0.09652174  0.27635412  0.68704602    -0.02800
Br361      Br  0.07560684  0.32147033  0.68653875    -0.01300
Br362      Br  0.15657523  0.31559739  0.66166794    -0.01400
Br363      Br  0.05951253  0.17572986  0.66736318    -0.01400
Br364      Br  0.12960623  0.17571256  0.61159006    -0.01400
C365        C  0.23254751  0.12341666  0.67268351    -0.02500
C366        C  0.26317170  0.13103355  0.65134655     0.07200
C367        C  0.28999329  0.10706499  0.65582797    -0.02600
C368        C  0.28569767  0.07562608  0.68050196    -0.02600
C369        C  0.25297461  0.06609077  0.69787439     0.07300
C370        C  0.22596750  0.09003334  0.68876370    -0.02800
Br371      Br  0.17855642  0.07636239  0.68537309    -0.01300
Br372      Br  0.19932103  0.15912693  0.68069608    -0.01400
Br373      Br  0.32538237  0.04691530  0.68683595    -0.01400
Br374      Br  0.33371462  0.11946452  0.63165578    -0.01400
C375        C  0.25439389  0.43682225  0.64614375    -0.02500
C376        C  0.24693625  0.43448351  0.69261876     0.07200
C377        C  0.24461709  0.40101126  0.71215778    -0.02600
C378        C  0.24784155  0.37084814  0.68525376    -0.02600
C379        C  0.25533714  0.37302322  0.63817995     0.07300
C380        C  0.25977666  0.40689328  0.61959357    -0.02800
Br381      Br  0.27408232  0.41459253  0.55760380    -0.01300
Br382      Br  0.25436489  0.48154129  0.61746197    -0.01400
Br383      Br  0.24027613  0.32691802  0.71442594    -0.01400
Br384      Br  0.23838700  0.39549641  0.77695809    -0.01400
C385        C  0.38789656  0.07972590  0.50076715    -0.02500
C386        C  0.41651278  0.08459353  0.47351549     0.07200
C387        C  0.41876084  0.11315117  0.44449321    -0.02600
C388        C  0.39357777  0.13865525  0.44577744    -0.02600
C389        C  0.36534620  0.13451342  0.47462421     0.07300
C390        C  0.36111819  0.10317089  0.49853097    -0.02800
Br391      Br  0.31830110  0.08932256  0.52489220    -0.01300
Br392      Br  0.38563878  0.04104685  0.54193439    -0.01400
Br393      Br  0.39609492  0.17671260  0.40399074    -0.01400
Br394      Br  0.45588812  0.11655628  0.40238804    -0.01400
C395        C  0.11336901  0.08611986  0.54251234    -0.02500
C396        C  0.08623741  0.08552111  0.51074077     0.07200
C397        C  0.08477884  0.11101156  0.47636636    -0.02600
C398        C  0.11059539  0.13602263  0.47347322    -0.02600
C399        C  0.13967284  0.13393599  0.50216446     0.07300
C400        C  0.14123870  0.10816238  0.53580191    -0.02800
Br401      Br  0.18146494  0.10286817  0.57313091    -0.01300
Br402      Br  0.11201545  0.05730447  0.59590659    -0.01400
Br403      Br  0.10634090  0.17198253  0.42836199    -0.01400
Br404      Br  0.04807247  0.11177406  0.43192235    -0.01400
C405        C  0.11633821  0.40712197  0.46213947    -0.02500
C406        C  0.08652174  0.40476211  0.48724160     0.07200
C407        C  0.08298169  0.37851699  0.51975996    -0.02600
C408        C  0.10808852  0.35295093  0.52295943    -0.02600
C409        C  0.14018687  0.35883547  0.50256173     0.07300
C410        C  0.14491995  0.38928505  0.47728244    -0.02800
Br411      Br  0.18840231  0.41246583  0.47369826    -0.01300
Br412      Br  0.11815945  0.43710411  0.41026617    -0.01400
Br413      Br  0.09761321  0.31152741  0.55609302    -0.01400
Br414      Br  0.04488741  0.37829357  0.56062829    -0.01400
C415        C  0.36923742  0.37596425  0.43796593    -0.02500
C416        C  0.36030521  0.36720423  0.48258251     0.07200
C417        C  0.37537995  0.38434290  0.51959570    -0.02600
C418        C  0.40144378  0.40827204  0.51186794    -0.02600
C419        C  0.41318714  0.41393750  0.46732608     0.07300
C420        C  0.39751987  0.39710171  0.43039317    -0.02800
Br421      Br  0.41628888  0.40034510  0.37046972    -0.01300
Br422      Br  0.34179656  0.36001386  0.38746834    -0.01400
Br423      Br  0.42209026  0.43230181  0.56252837    -0.01400
Br424      Br  0.35944630  0.37600333  0.58030439    -0.01400
C425        C  0.10520531  0.27025579  0.36677706    -0.02500
C426        C  0.13232825  0.24861335  0.35404473     0.07200
C427        C  0.12874920  0.22949558  0.31379337    -0.02600
C428        C  0.09848725  0.23188375  0.28731800    -0.02600
C429        C  0.06845762  0.24788552  0.30494884     0.07300
C430        C  0.07369962  0.26963429  0.34316990    -0.02800
Br431      Br  0.04047836  0.30296112  0.36116713    -0.01300
Br432      Br  0.11180698  0.30341652  0.41491607    -0.01400
Br433      Br  0.10314331  0.22085749  0.22362957    -0.01400
Br434      Br  0.16482383  0.19922102  0.29481084    -0.01400
C435        C  0.40161508  0.27554282  0.36065071    -0.02500
C436        C  0.37307461  0.25511701  0.34727640     0.07200
C437        C  0.37604833  0.23555078  0.30705354    -0.02600
C438        C  0.40828320  0.23170904  0.28608950    -0.02600
C439        C  0.43667582  0.25186053  0.30045933     0.07300
C440        C  0.43110247  0.27659777  0.33428401    -0.02800
Br441      Br  0.46127767  0.31536340  0.34096469    -0.01300
Br442      Br  0.40368681  0.30087598  0.41678150    -0.01400
Br443      Br  0.41287009  0.19681239  0.24035511    -0.01400
Br444      Br  0.33676187  0.21275415  0.28120964    -0.01400
C445        C  0.26779592  0.37115739  0.30429470    -0.02500
C446        C  0.24656480  0.36276886  0.34129187     0.07200
C447        C  0.22047780  0.38573510  0.35173991    -0.02600
C448        C  0.22147960  0.41982981  0.33628600    -0.02600
C449        C  0.24360323  0.42975019  0.30141107     0.07300
C450        C  0.26447587  0.40383805  0.28251822    -0.02800
Br451      Br  0.28444678  0.41134231  0.22402386    -0.01300
Br452      Br  0.29870616  0.33754710  0.28071362    -0.01400
Br453      Br  0.19313078  0.45311508  0.36405206    -0.01400
Br454      Br  0.17961012  0.36701032  0.37735647    -0.00400
C455        C  0.21539200  0.07031373  0.33707219    -0.02500
C456        C  0.24394974  0.05541448  0.31472859     0.07200
C457        C  0.27469830  0.07490408  0.31482340    -0.02600
C458        C  0.27688886  0.10708047  0.33746922    -0.02600
C459        C  0.24783441  0.12237844  0.35619935     0.07300
C460        C  0.21700417  0.10399333  0.35506634    -0.02800
Br461      Br  0.17670783  0.12537221  0.37901270    -0.01300
Br462      Br  0.17395628  0.04448127  0.34680382    -0.01400
Br463      Br  0.32024574  0.12978731  0.34524740    -0.01400
Br464      Br  0.31402763  0.05994387  0.28237370    -0.01400
O465        O  0.25591455  0.67983677  0.38351136    -0.80800
O466        O  0.25887747  0.69563640  0.64333564    -0.82300
O467        O  0.30925842  0.65367228  0.50433582    -0.79300
O468        O  0.19763604  0.65335662  0.50857714    -0.77700
O469        O  0.15603095  0.69391070  0.50376683    -0.79500
O470        O  0.35071043  0.69460170  0.50607766    -0.80400
O471        O  0.25769009  0.65380098  0.58855349    -0.81800
O472        O  0.25486868  0.64418404  0.44563151    -0.82100
Eu473      Eu  0.25449206  0.68042525  0.51263807     2.39200
O474        O  0.22089155  0.71604754  0.55740573    -0.89600
O475        O  0.28862135  0.71247391  0.46282042    -0.93200
C476        C  0.25516443  0.64948113  0.40253348     1.01500
C477        C  0.25891649  0.66356535  0.63041423     1.01300
C478        C  0.34044457  0.66320850  0.50358168     1.01300
C479        C  0.16612977  0.66260495  0.50533458     0.99100
H480        H  0.30494002  0.70363797  0.57518376     0.28900
O481        O  0.28983628  0.71713823  0.55623800    -1.02000
H482        H  0.20667701  0.69627211  0.44375366     0.28900
O483        O  0.22094501  0.71156816  0.46096941    -1.04500
O484        O  0.25352681  0.81446904  0.62994120    -0.81700
O485        O  0.25234176  0.79847001  0.36682163    -0.81300
O486        O  0.35300761  0.75623863  0.57757496    -0.79700
O487        O  0.15869898  0.74482570  0.57879801    -0.83000
O488        O  0.15765153  0.74531559  0.43286649    -0.80900
O489        O  0.35304516  0.74793352  0.43482629    -0.79500
O490        O  0.30549703  0.84842060  0.48724989    -0.81100
O491        O  0.19926141  0.84486517  0.50550116    -0.83000
O492        O  0.34762813  0.80811676  0.49110032    -0.79700
O493        O  0.15870882  0.80332673  0.50888953    -0.82400
O494        O  0.31487784  0.75912454  0.63555348    -0.78100
O495        O  0.31527559  0.74585119  0.37580274    -0.78200
O496        O  0.19584765  0.74245173  0.37487043    -0.77800
O497        O  0.19755549  0.74937307  0.63718230    -0.81300
O498        O  0.25686998  0.85011851  0.56933604    -0.80700
O499        O  0.24892251  0.83975650  0.42197711    -0.79100
Eu500      Eu  0.25589761  0.75299546  0.60221934     2.39800
Eu501      Eu  0.25511665  0.74244527  0.40907628     2.39600
Eu502      Eu  0.32250704  0.75053923  0.50571218     2.38400
Eu503      Eu  0.18716842  0.74766037  0.50581442     2.39900
Eu504      Eu  0.25359924  0.81630216  0.49940150     2.39800
O505        O  0.22028869  0.77913812  0.45437602    -0.93500
O506        O  0.28895451  0.78628879  0.55086789    -0.92400
C507        C  0.25531017  0.84515152  0.61238053     1.01700
C508        C  0.24960995  0.83020247  0.37998266     1.00400
C509        C  0.34570061  0.75935772  0.61982579     0.99800
C510        C  0.16662262  0.74591616  0.62129204     1.01800
C511        C  0.16497888  0.74407181  0.39045266     1.00700
C512        C  0.34640648  0.74777501  0.39211770     0.99600
C513        C  0.33669196  0.83906493  0.48450827     0.99600
C514        C  0.16828073  0.83493167  0.50900214     1.02300
H515        H  0.30068420  0.79405978  0.43475541     0.29600
O516        O  0.28738450  0.78037105  0.45487135    -1.05600
H517        H  0.20672126  0.79891489  0.56851739     0.31700
O518        O  0.22103404  0.78411842  0.55067864    -1.08200
N519        N  0.45244784  0.49827120  0.48091040    -0.37200
N520        N  0.00192226  0.94422898  0.46450251    -0.57800
N521        N  0.05325066  0.49512417  0.49201993    -0.37200
N522        N  0.00321140  0.54846948  0.49336117    -0.57800
C523        C  0.43455036  0.97193559  0.43858981     0.26300
C524        C  0.43539204  0.52800433  0.47478853     0.26300
C525        C  0.07161168  0.96675825  0.49651702     0.26300
C526        C  0.07380041  0.52200677  0.50252810     0.26300
C527        C  0.47409756  0.92354101  0.45158076     0.35000
C528        C  0.02804138  0.92254575  0.47238023     0.35000
C529        C  0.47534014  0.56740786  0.51555763     0.35000
C530        C  0.02924273  0.56637218  0.51135714     0.35000
C531        C  0.40576267  0.98542991  0.41779301    -0.22500
C532        C  0.40600755  0.52197358  0.44925847    -0.22500
C533        C  0.10528033  0.97733275  0.50193428    -0.22500
C534        C  0.10655441  0.51022345  0.51039758    -0.22500
C535        C  0.48212242  0.88896951  0.45086723    -0.23600
C536        C  0.01750201  0.88882664  0.46547913    -0.23600
C537        C  0.48416945  0.59859754  0.53535028    -0.23600
C538        C  0.01793688  0.59728873  0.52883343    -0.23600
C539        C  0.44134805  0.93677710  0.44332887    -0.18900
C540        C  0.44360742  0.55965598  0.49561522    -0.18900
C541        C  0.06340393  0.55653512  0.50801887    -0.18900
C542        C  0.06087836  0.93237826  0.48777293    -0.18900
H543        H  0.38590733  0.97147429  0.39985379     0.14000
H544        H  0.38675659  0.54045712  0.43924038     0.14000
H545        H  0.12812703  0.96208572  0.50395153     0.14000
H546        H  0.12912446  0.52485758  0.51892544     0.14000
H547        H  0.46551857  0.86763566  0.44246691     0.12300
H548        H  0.03252603  0.86562878  0.46836192     0.12300
H549        H  0.46775703  0.62029286  0.54198879     0.12300
H550        H  0.03306993  0.61730694  0.54471603     0.12300
H551        H  0.47234889  0.49416572  0.50384339     0.25500
H552        H  0.02829617  0.49639905  0.48115136     0.25500
O553        O  0.49715659  0.93782008  0.87096487    -0.80800
O554        O  0.49535510  0.93568880  0.13203912    -0.82300
O555        O  0.05705842  0.91081126  0.99278947    -0.79300
O556        O  0.44343146  0.89583143  0.99903290    -0.77700
O557        O  0.39956583  0.93422923  0.99619874    -0.79500
O558        O  0.09432589  0.95585245  0.99651203    -0.80400
O559        O  0.49974407  0.89776856  0.07287212    -0.81800
O560        O  0.49623124  0.89934119  0.92960909    -0.82100
Eu561      Eu  0.49681827  0.92928149  0.00153672     2.39200
O562        O  0.45950919  0.95969555  0.04895068    -0.89600
O563        O  0.02811314  0.96778336  0.95451195    -0.93200
C564        C  0.49765602  0.90641273  0.88712863     1.01500
C565        C  0.49875503  0.90470105  0.11553261     1.01300
C566        C  0.08736098  0.92397440  0.99147021     1.01300
C567        C  0.41150014  0.90349257  0.99633313     0.99100
H568        H  0.04342019  0.95230367  0.06767934     0.28900
O569        O  0.02769307  0.96629125  0.05014765    -1.02000
H570        H  0.44760997  0.94601350  0.93441076     0.28900
O571        O  0.46082872  0.96146217  0.95338966    -1.04500
O572        O  0.48096235  0.55585606  0.13450661    -0.81700
O573        O  0.49119121  0.55884427  0.87176684    -0.81300
O574        O  0.08777397  0.00262700  0.07534563    -0.79700
O575        O  0.39316032  0.98886673  0.07379472    -0.83000
O576        O  0.39624962  0.99236419  0.92449729    -0.80900
O577        O  0.09013760  0.50321235  0.93455954    -0.79500
O578        O  0.03601342  0.60142883  0.00059507    -0.81100
O579        O  0.42998263  0.59309715  0.99839148    -0.83000
O580        O  0.08024326  0.56351508  0.99948807    -0.79700
O581        O  0.39088975  0.54983508  0.99248907    -0.82400
O582        O  0.04968052  0.00087503  0.13331448    -0.78100
O583        O  0.05304530  0.50258078  0.87441195    -0.78200
O584        O  0.43468663  0.49441930  0.86439324    -0.77800
O585        O  0.43114776  0.99433514  0.13251887    -0.81300
O586        O  0.48401978  0.59421207  0.07646095    -0.80700
O587        O  0.48201524  0.59525607  0.93055629    -0.79100
Eu588      Eu  0.49048486  0.99626651  0.09943717     2.39800
Eu589      Eu  0.49231572  0.49768814  0.90337721     2.39600
Eu590      Eu  0.05790204  0.00501190  0.00338339     2.38400
Eu591      Eu  0.42336946  0.99179610  0.00051345     2.39900
Eu592      Eu  0.48481421  0.56550406  0.00242507     2.39800
O593        O  0.45524039  0.52962392  0.95117445    -0.93500
O594        O  0.02080579  0.53487427  0.05251483    -0.92400
C595        C  0.48123836  0.58725902  0.11899988     1.01700
C596        C  0.48665254  0.58965857  0.88832071     1.00400
C597        C  0.08059926  0.00216538  0.11768853     0.99800
C598        C  0.40008912  0.99202494  0.11662283     1.01800
C599        C  0.40326980  0.49315786  0.87812039     1.00700
C600        C  0.08381947  0.50339062  0.89165469     0.99600
C601        C  0.06772218  0.59414573  0.99801303     0.99600
C602        C  0.39946698  0.58186826  0.99419019     1.02300
H603        H  0.03563201  0.55100525  0.93781309     0.29600
O604        O  0.02207060  0.53549811  0.95539606    -1.05600
H605        H  0.43549977  0.54344404  0.06423329     0.31700
O606        O  0.45119701  0.52957175  0.04722177    -1.08200
N607        N  0.28969041  0.74348395  0.97401642    -0.37200
N608        N  0.23272047  0.69818230  0.97839818    -0.57800
N609        N  0.18709294  0.75640139  0.96098486    -0.37200
N610        N  0.24494135  0.80088298  0.95734865    -0.57800
C611        C  0.30387178  0.71541326  0.99307156     0.26300
C612        C  0.31030540  0.77008310  0.98408234     0.26300
C613        C  0.16465278  0.73205889  0.97372081     0.26300
C614        C  0.17157578  0.78721403  0.96581423     0.26300
C615        C  0.25786252  0.67461255  0.97586716     0.35000
C616        C  0.20332651  0.68131195  0.97032364     0.35000
C617        C  0.27508474  0.81595680  0.94935221     0.35000
C618        C  0.22076037  0.82392813  0.94608480     0.35000
C619        C  0.33394884  0.72406867  0.01536207    -0.22500
C620        C  0.33789760  0.75885782  0.01000967    -0.22500
C621        C  0.13397675  0.74737874  0.98481548    -0.22500
C622        C  0.13841847  0.78221627  0.98013101    -0.22500
C623        C  0.24453657  0.64248245  0.96634991    -0.23600
C624        C  0.20979528  0.64665484  0.96323832    -0.23600
C625        C  0.27013232  0.84854824  0.93139487    -0.23600
C626        C  0.23551996  0.85379449  0.92989707    -0.23600
C627        C  0.29224315  0.68182903  0.98577123    -0.18900
C628        C  0.30604222  0.80360251  0.96734704    -0.18900
C629        C  0.18621151  0.81966885  0.95658196    -0.18900
C630        C  0.17071606  0.69629051  0.97366041    -0.18900
H631        H  0.35150060  0.70698151  0.03276051     0.14000
H632        H  0.35915409  0.77395630  0.02259943     0.14000
H633        H  0.11078963  0.73481507  0.99538874     0.14000
H634        H  0.11928673  0.80160347  0.98630269     0.14000
H635        H  0.25828832  0.61853198  0.96321295     0.12300
H636        H  0.19140223  0.62642554  0.95701343     0.12300
H637        H  0.28945178  0.86739549  0.92341617     0.12300
H638        H  0.22278619  0.87729143  0.91985164     0.12300
H639        H  0.26987619  0.74362125  0.95022261     0.25500
H640        H  0.21052608  0.75172698  0.94626490     0.25500
C641        C  0.03706056  0.74452412  0.28114001     0.85900
C642        C  0.02966847  0.71281463  0.25161444    -0.54400
C643        C  0.50094625  0.71333101  0.22612742     0.08800
C644        C  0.48093098  0.74780586  0.23356604     0.19700
C645        C  0.03412653  0.77534261  0.24940049    -0.55100
C646        C  0.50671967  0.77775909  0.22420740     0.08900
C647        C  0.50565346  0.74589632  0.30975061    -0.54600
C648        C  0.47507084  0.74842196  0.28590098     0.09500
H649        H  0.04475764  0.68958661  0.25350153     0.14000
H650        H  0.45725756  0.75025059  0.21304509    -0.00300
H651        H  0.05418915  0.79450477  0.24708138     0.14300
H652        H  0.50680606  0.74443940  0.34650690     0.14100
C653        C  0.20981215  0.99253807  0.22359637     0.85900
C654        C  0.21513694  0.95913249  0.24981565    -0.54400
C655        C  0.24259778  0.95827481  0.27825456     0.08800
C656        C  0.26418732  0.99234817  0.27676846     0.19700
C657        C  0.20832493  0.52903454  0.26252492    -0.55100
C658        C  0.23749440  0.52747092  0.28768827     0.08900
C659        C  0.24423819  0.99518735  0.19811227    -0.54600
C660        C  0.27351590  0.99556144  0.22532936     0.09500
H661        H  0.19978754  0.93634232  0.24383442     0.14000
H662        H  0.28558635  0.99263920  0.30122361    -0.00300
H663        H  0.19017888  0.54990714  0.26588606     0.14300
H664        H  0.24531140  0.99551270  0.16134847     0.14100
C665        C  0.03808509  0.74674408  0.72444143     0.85900
C666        C  0.03489561  0.77618911  0.75899756    -0.54400
C667        C  0.50515517  0.77897332  0.77998576     0.08800
C668        C  0.48105539  0.74828152  0.76935060     0.19700
C669        C  0.03231814  0.71472732  0.75414128    -0.55100
C670        C  0.50246333  0.71462101  0.77677382     0.08900
C671        C  0.50560856  0.74882319  0.69388886    -0.54600
C672        C  0.47544378  0.74988950  0.71743564     0.09500
H673        H  0.05561267  0.79315264  0.76821828     0.14000
H674        H  0.45728130  0.74965583  0.78907720    -0.00300
H675        H  0.05043504  0.69371793  0.75633929     0.14300
H676        H  0.50649272  0.74901791  0.65710254     0.14100
C677        C  0.21114309  0.00385928  0.78570367     0.85900
C678        C  0.21607216  0.53058764  0.75515091    -0.54400
C679        C  0.24288428  0.53194024  0.72593558     0.08800
C680        C  0.26612469  0.99977323  0.73630092     0.19700
C681        C  0.21224656  0.97243846  0.75421363    -0.55100
C682        C  0.24064648  0.96925678  0.72867291     0.08900
C683        C  0.24444522  0.99979174  0.81393026    -0.54600
C684        C  0.27362283  0.99885291  0.78857715     0.09500
H685        H  0.20078472  0.55291265  0.76307948     0.14000
H686        H  0.28907720  0.99607108  0.71592358    -0.00300
H687        H  0.19253250  0.95291164  0.75391142     0.14300
H688        H  0.24514228  0.99771376  0.85062823     0.14100
C689        C  0.14430766  0.97953893  0.21300507    -0.02500
C690        C  0.17519348  0.99506846  0.19683250     0.07200
C691        C  0.16410720  0.52949423  0.16792371    -0.02600
C692        C  0.13481222  0.52931747  0.13999127    -0.02600
C693        C  0.11117044  0.00273508  0.14883638     0.07300
C694        C  0.11332280  0.98196748  0.18789641    -0.02800
Br695      Br  0.07387588  0.95618727  0.20733689    -0.01300
Br696      Br  0.14024676  0.96055965  0.27341018    -0.01400
Br697      Br  0.13522502  0.55798501  0.08629019    -0.01400
Br698      Br  0.19435991  0.56836403  0.16361152    -0.01400
C699        C  0.37052431  0.98414293  0.19484610    -0.02500
C700        C  0.36963890  0.99476061  0.14846189     0.07200
C701        C  0.33034364  0.50644445  0.12373263    -0.02600
C702        C  0.30355820  0.51448134  0.15332521    -0.02600
C703        C  0.30922625  0.99831499  0.20423843     0.07300
C704        C  0.34002890  0.98314138  0.22122431    -0.02800
Br705      Br  0.34300764  0.96249040  0.28069997    -0.01300
Br706      Br  0.41322273  0.97271384  0.22408298    -0.01400
Br707      Br  0.27649467  0.55378600  0.13648222    -0.01400
Br708      Br  0.31912196  0.50999323  0.05963539    -0.01400
C709        C  0.02422713  0.81673848  0.16124220    -0.02500
C710        C  0.50221241  0.80908871  0.19390857     0.07200
C711        C  0.47635541  0.83377963  0.20142890    -0.02600
C712        C  0.47551102  0.86513183  0.17665482    -0.02600
C713        C  0.50160951  0.87374337  0.14617123     0.07300
C714        C  0.02364391  0.84838784  0.13747542    -0.02800
Br715      Br  0.05927210  0.85788173  0.09458039    -0.01300
Br716      Br  0.05917180  0.78351452  0.14720010    -0.01400
Br717      Br  0.43653061  0.89463210  0.18085184    -0.01400
Br718      Br  0.44237177  0.82596963  0.24667100    -0.01400
C719        C  0.97890201  0.68277071  0.15584863    -0.02500
C720        C  0.48886379  0.68128230  0.20102035     0.07200
C721        C  0.48867762  0.64868509  0.22301799    -0.02600
C722        C  0.48570094  0.61760742  0.19769581    -0.02600
C723        C  0.47897321  0.61859453  0.15021005     0.07300
C724        C  0.97061591  0.65227706  0.13203732    -0.02800
Br725      Br  0.94450703  0.65695544  0.07630254    -0.01300
Br726      Br  0.98040057  0.72570099  0.12330868    -0.01400
Br727      Br  0.48991703  0.57444183  0.22957151    -0.01400
Br728      Br  0.48988051  0.64661816  0.28861493    -0.01400
C729        C  0.14681512  0.86573665  0.92784245    -0.02500
C730        C  0.16510663  0.85071491  0.96406762     0.07200
C731        C  0.16159820  0.86373740  0.00849807    -0.02600
C732        C  0.13759905  0.88960037  0.01714216    -0.02600
C733        C  0.11618819  0.90121111  0.98179612     0.07300
C734        C  0.12292320  0.89167390  0.93664810    -0.02800
Br735      Br  0.10060107  0.91533581  0.88697517    -0.01300
Br736      Br  0.15360097  0.84981142  0.86669248    -0.01400
Br737      Br  0.13504588  0.91030121  0.07651586    -0.01400
Br738      Br  0.18840486  0.84489299  0.05782489    -0.01400
C739        C  0.38960713  0.85051893  0.95731143    -0.02500
C740        C  0.38630724  0.87554704  0.99182540     0.07200
C741        C  0.35684983  0.87585355  0.01904097    -0.02600
C742        C  0.33115575  0.85147969  0.01169650    -0.02600
C743        C  0.33376364  0.82823890  0.97549627     0.07300
C744        C  0.36296372  0.82734521  0.94859978    -0.02800
Br745      Br  0.36577207  0.79472204  0.89926995    -0.01300
Br746      Br  0.42917517  0.84876521  0.91953285    -0.01400
Br747      Br  0.29252126  0.84912446  0.05180155    -0.01400
Br748      Br  0.35105273  0.90936761  0.06665662    -0.01400
C749        C  0.35006980  0.61091917  0.02891372    -0.02500
C750        C  0.37240017  0.60771287  0.99225748     0.07200
C751        C  0.37003256  0.63075535  0.95545302    -0.02600
C752        C  0.34177889  0.65250684  0.95145242    -0.02600
C753        C  0.31803474  0.65420431  0.98688521     0.07300
C754        C  0.32303164  0.63445207  0.02647282    -0.02800
Br755      Br  0.29508111  0.64223299  0.07875164    -0.01300
Br756      Br  0.36051776  0.58766629  0.08516341    -0.01400
Br757      Br  0.33644664  0.68121921  0.89824087    -0.01400
Br758      Br  0.40714161  0.63611036  0.91371751    -0.01400
C759        C  0.10048109  0.63290316  0.94736427    -0.02500
C760        C  0.09121786  0.62292475  0.99158031     0.07200
C761        C  0.10415022  0.64079825  0.02946700    -0.02600
C762        C  0.13014617  0.66509357  0.02369632    -0.02600
C763        C  0.14142209  0.67301669  0.97969150     0.07300
C764        C  0.12532050  0.65840667  0.94146324    -0.02800
Br765      Br  0.13753913  0.67354870  0.88139349    -0.01300
Br766      Br  0.07875077  0.61232783  0.89494803    -0.01400
Br767      Br  0.15043646  0.68739442  0.07587933    -0.01400
Br768      Br  0.08509476  0.63310562  0.08867400    -0.01400
C769        C  0.32027380  0.96675607  0.83189056    -0.02500
C770        C  0.30882498  0.99698958  0.80984470     0.07200
C771        C  0.32103497  0.52431743  0.82326047    -0.02600
C772        C  0.35316495  0.52426360  0.84510307    -0.02600
C773        C  0.37427081  0.49506501  0.84458373     0.07300
C774        C  0.35374643  0.96429089  0.84937255    -0.02800
Br775      Br  0.37025805  0.92117719  0.87345904    -0.01300
Br776      Br  0.28902699  0.93093282  0.84707119    -0.01400
Br777      Br  0.36872320  0.56462495  0.87585667    -0.01400
Br778      Br  0.29329034  0.56508361  0.82610781    -0.01400
C779        C  0.14468039  0.52261601  0.87499266    -0.02500
C780        C  0.11481709  0.50437386  0.86141085     0.07200
C781        C  0.11393484  0.99903232  0.81370839    -0.02600
C782        C  0.14477141  0.99936751  0.78900483    -0.02600
C783        C  0.17648118  0.00821128  0.81054078     0.07300
C784        C  0.17527953  0.52029667  0.84994295    -0.02800
Br785      Br  0.21262679  0.54959043  0.86854832    -0.01300
Br786      Br  0.14400460  0.55318511  0.92680799    -0.01400
Br787      Br  0.14100075  0.99467460  0.72356759    -0.01400
Br788      Br  0.07349079  0.98052993  0.78463284    -0.01400
C789        C  0.98523487  0.61972175  0.81057446    -0.02500
C790        C  0.48749670  0.62185206  0.85873980     0.07200
C791        C  0.49063738  0.65549399  0.87866702    -0.02600
C792        C  0.48950040  0.68545507  0.85149800    -0.02600
C793        C  0.49238968  0.68326212  0.80420917     0.07300
C794        C  0.98892783  0.64990257  0.78391673    -0.02800
Br795      Br  0.98652570  0.64592562  0.71887752    -0.01300
Br796      Br  0.97597202  0.57672180  0.77978688    -0.01400
Br797      Br  0.48262292  0.72957260  0.87964966    -0.01400
Br798      Br  0.49957182  0.66332296  0.94280045    -0.01400
C799        C  0.52131264  0.84683209  0.87120124    -0.02500
C800        C  0.50024324  0.87483672  0.85711319     0.07200
C801        C  0.97674669  0.86900478  0.81965284    -0.02600
C802        C  0.97505617  0.83587438  0.79892596    -0.02600
C803        C  0.49908762  0.80958880  0.81058618     0.07300
C804        C  0.52189939  0.81557020  0.84699586    -0.02800
Br805      Br  0.55426820  0.78025698  0.86482160    -0.01300
Br806      Br  0.54965226  0.84936838  0.92485041    -0.01400
Br807      Br  0.93920648  0.82676860  0.75582497    -0.01400
Br808      Br  0.94771887  0.90537461  0.79740646    -0.01400
C809        C  0.40417078  0.78255841  0.63811129    -0.02500
C810        C  0.37591028  0.76234779  0.65112952     0.07200
C811        C  0.37933935  0.74094693  0.68947600    -0.02600
C812        C  0.41174158  0.73557487  0.70984856    -0.02600
C813        C  0.44078743  0.75436367  0.69513685     0.07300
C814        C  0.43597980  0.77932791  0.66050192    -0.02800
Br815      Br  0.47179589  0.81151813  0.64505161    -0.01300
Br816      Br  0.39924533  0.81605671  0.59013452    -0.01400
Br817      Br  0.41534399  0.69950484  0.75451648    -0.01400
Br818      Br  0.33978517  0.71826804  0.71398707    -0.01400
C819        C  0.12708944  0.77330872  0.67687852    -0.02500
C820        C  0.13687656  0.74397634  0.65253300     0.07200
C821        C  0.11309652  0.71684679  0.64793143    -0.02600
C822        C  0.08148370  0.71772357  0.67044842    -0.02600
C823        C  0.07182853  0.74678506  0.69657913     0.07300
C824        C  0.09361551  0.77620538  0.69374318    -0.02800
Br825      Br  0.07538079  0.82247703  0.69473070    -0.01300
Br826      Br  0.15796533  0.81188161  0.68142166    -0.01400
Br827      Br  0.05003995  0.68074147  0.65834233    -0.01400
Br828      Br  0.12255430  0.67905168  0.60779201    -0.01400
C829        C  0.22587688  0.62217789  0.67700464    -0.02500
C830        C  0.25783123  0.63468699  0.66449567     0.07200
C831        C  0.28646740  0.61365342  0.67335843    -0.02600
C832        C  0.28277592  0.58019476  0.69296026    -0.02600
C833        C  0.24971244  0.56598204  0.70068541     0.07300
C834        C  0.22138658  0.58739437  0.68913244    -0.02800
Br835      Br  0.17592113  0.56859597  0.68204629    -0.01300
Br836      Br  0.18821832  0.65359869  0.67938462    -0.01400
Br837      Br  0.32370517  0.55512132  0.70730911    -0.01400
Br838      Br  0.33097035  0.63215799  0.66092066    -0.01400
C839        C  0.25033733  0.94081822  0.65224266    -0.02500
C840        C  0.24637411  0.93753324  0.69945408     0.07200
C841        C  0.24557491  0.90371148  0.71783733    -0.02600
C842        C  0.25228251  0.87445685  0.69068181    -0.02600
C843        C  0.25445861  0.87722311  0.64267024     0.07300
C844        C  0.25414146  0.91143792  0.62402092    -0.02800
Br845      Br  0.25991483  0.92067694  0.55990405    -0.01300
Br846      Br  0.24617142  0.98599738  0.62528017    -0.01400
Br847      Br  0.26117533  0.83142958  0.72191283    -0.01400
Br848      Br  0.23180085  0.89549745  0.77947479    -0.01400
C849        C  0.38922637  0.58143313  0.52527984    -0.02500
C850        C  0.41706270  0.58611017  0.49656408     0.07200
C851        C  0.41893598  0.61480250  0.46774965    -0.02600
C852        C  0.39414124  0.64046594  0.47048366    -0.02600
C853        C  0.36605895  0.63600343  0.49954819     0.07300
C854        C  0.36248336  0.60498274  0.52427071    -0.02800
Br855      Br  0.32099288  0.59250138  0.55499950    -0.01300
Br856      Br  0.38821613  0.54293471  0.56684117    -0.01400
Br857      Br  0.39789330  0.67989242  0.43123315    -0.01400
Br858      Br  0.45497015  0.61836779  0.42383302    -0.01400
C859        C  0.11282029  0.58764756  0.54382325    -0.02500
C860        C  0.08923370  0.58427823  0.50800484     0.07200
C861        C  0.09024381  0.60731384  0.47102347    -0.02600
C862        C  0.11359664  0.63470556  0.47154242    -0.02600
C863        C  0.13978137  0.63544279  0.50494184     0.07300
C864        C  0.14031609  0.61019348  0.53920793    -0.02800
Br865      Br  0.17917683  0.60500084  0.57848913    -0.01300
Br866      Br  0.10661707  0.56268467  0.59969616    -0.01400
Br867      Br  0.11050712  0.66930740  0.42474483    -0.01400
Br868      Br  0.06057649  0.60047300  0.41887412    -0.01400
C869        C  0.11560635  0.90614775  0.46581480    -0.02500
C870        C  0.08668794  0.90511302  0.49311905     0.07200
C871        C  0.08484917  0.88100645  0.52884142    -0.02600
C872        C  0.11094430  0.85658424  0.53384369    -0.02600
C873        C  0.14175988  0.86147578  0.51023856     0.07300
C874        C  0.14498396  0.89010316  0.48155020    -0.02800
Br875      Br  0.18751977  0.91454593  0.47586866    -0.01300
Br876      Br  0.11620096  0.93260633  0.41043384    -0.01400
Br877      Br  0.10465982  0.81845621  0.57460632    -0.01400
Br878      Br  0.04751166  0.88173507  0.57094201    -0.01400
C879        C  0.37352540  0.86836575  0.42749158    -0.02500
C880        C  0.36146373  0.86572865  0.47235002     0.07200
C881        C  0.37254226  0.88922422  0.50547566    -0.02600
C882        C  0.39865560  0.91242432  0.49548224    -0.02600
C883        C  0.41212504  0.91377509  0.45133992     0.07300
C884        C  0.39901698  0.89239293  0.41694724    -0.02800
Br885      Br  0.41661240  0.89571288  0.35620547    -0.01300
Br886      Br  0.35393725  0.84054060  0.38010680    -0.01400
Br887      Br  0.41728685  0.94111378  0.54321031    -0.01400
Br888      Br  0.35127268  0.89036931  0.56411960    -0.01400
C889        C  0.10882200  0.77003120  0.36733821    -0.02500
C890        C  0.13484099  0.74591795  0.35874603     0.07200
C891        C  0.13100882  0.72409222  0.32087946    -0.02600
C892        C  0.10129010  0.72585230  0.29303768    -0.02600
C893        C  0.07222444  0.74528940  0.30688955     0.07300
C894        C  0.07842044  0.77016002  0.34134803    -0.02800
Br895      Br  0.04908646  0.80926448  0.34834758    -0.01300
Br896      Br  0.11528912  0.80507876  0.41332517    -0.01400
Br897      Br  0.10646542  0.71041397  0.23109221    -0.01400
Br898      Br  0.16590951  0.69083006  0.30743378    -0.01400
C899        C  0.40797904  0.76746705  0.37729165    -0.02500
C900        C  0.37769656  0.75042092  0.36165662     0.07200
C901        C  0.37933737  0.73424627  0.31859869    -0.02600
C902        C  0.41074278  0.73220939  0.29460539    -0.02600
C903        C  0.44030824  0.75060161  0.30949360     0.07300
C904        C  0.43681052  0.77055100  0.34931028    -0.02800
Br905      Br  0.46942738  0.80584608  0.36445708    -0.01300
Br906      Br  0.41337377  0.78576277  0.43828648    -0.01400
Br907      Br  0.41267777  0.70100936  0.24412152    -0.01400
Br908      Br  0.33935197  0.71226212  0.29323596    -0.01400
C909        C  0.26829595  0.86522074  0.31009734    -0.02500
C910        C  0.24599294  0.85911823  0.34646100     0.07200
C911        C  0.22168707  0.88431074  0.35591804    -0.02600
C912        C  0.22544931  0.91810906  0.33989531    -0.02600
C913        C  0.24854482  0.92561739  0.30498951     0.07300
C914        C  0.26777670  0.89767461  0.28742923    -0.02800
Br915      Br  0.28956643  0.90198394  0.22958082    -0.01300
Br916      Br  0.29641478  0.82836709  0.28839386    -0.01400
Br917      Br  0.19813180  0.95394862  0.36528260    -0.01400
Br918      Br  0.17891006  0.86901092  0.37938657    -0.00400
C919        C  0.21938979  0.56645447  0.35208481    -0.02500
C920        C  0.24522222  0.55572521  0.32188847     0.07200
C921        C  0.27561416  0.57563662  0.32052656    -0.02600
C922        C  0.27955491  0.60545061  0.34799802    -0.02600
C923        C  0.25227920  0.61769524  0.37399491     0.07300
C924        C  0.22270112  0.59731235  0.37677376    -0.02800
Br925      Br  0.18559271  0.61219942  0.41366275    -0.01300
Br926      Br  0.17836084  0.53970833  0.36016390    -0.01400
Br927      Br  0.32287867  0.62862185  0.35229195    -0.01400
Br928      Br  0.31083473  0.56519443  0.27808757    -0.01400
O929        O  0.75211216  0.18190221  0.37243192    -0.80800
O930        O  0.76374926  0.18983944  0.63289294    -0.82300
O931        O  0.80937743  0.15442589  0.48281951    -0.79300
O932        O  0.69954811  0.14805997  0.50494869    -0.77700
O933        O  0.65792488  0.18861055  0.50495744    -0.79500
O934        O  0.85181645  0.19419748  0.48519948    -0.80400
O935        O  0.76255525  0.14919574  0.57648528    -0.81800
O936        O  0.75113048  0.14464961  0.43289657    -0.82100
Eu937      Eu  0.75518168  0.17811521  0.50215624     2.39200
O938        O  0.72358830  0.21241823  0.55053765    -0.89600
O939        O  0.78744879  0.21234794  0.45255777    -0.93200
C940        C  0.75093191  0.15109182  0.39009960     1.01500
C941        C  0.76414819  0.15816539  0.61872614     1.01300
C942        C  0.84058989  0.16328811  0.48024196     1.01300
C943        C  0.66793982  0.15718096  0.50555465     0.99100
H944        H  0.80790955  0.19963751  0.56245278     0.28900
O945        O  0.79204227  0.21376020  0.54551986    -1.02000
H946        H  0.70484748  0.19473791  0.43685605     0.28900
O947        O  0.71962613  0.20985409  0.45361667    -1.04500
O948        O  0.75913950  0.30788700  0.62975484    -0.81700
O949        O  0.75029793  0.30054549  0.36265089    -0.81300
O950        O  0.85753854  0.24905181  0.56356394    -0.79700
O951        O  0.65968370  0.23812135  0.57535843    -0.83000
O952        O  0.65653258  0.24288576  0.42988857    -0.80900
O953        O  0.84997083  0.24989189  0.42128650    -0.79500
O954        O  0.80277181  0.34865572  0.49157474    -0.81100
O955        O  0.69729223  0.34056161  0.50339577    -0.83000
O956        O  0.84571171  0.30913983  0.49133681    -0.79700
O957        O  0.65746933  0.29863370  0.50713046    -0.82400
O958        O  0.82137223  0.25192192  0.62370311    -0.78100
O959        O  0.81005039  0.24738077  0.36446408    -0.78200
O960        O  0.69318457  0.24421602  0.37003194    -0.77800
O961        O  0.70060175  0.24256419  0.63142573    -0.81300
O962        O  0.75276061  0.34438780  0.57004132    -0.80700
O963        O  0.74801744  0.34006692  0.42012364    -0.79100
Eu964      Eu  0.75959202  0.24800984  0.59581122     2.39800
Eu965      Eu  0.75233246  0.24342625  0.40226887     2.39600
Eu966      Eu  0.82281818  0.24930657  0.49499413     2.38400
Eu967      Eu  0.68720024  0.24380502  0.50240704     2.39900
Eu968      Eu  0.75220467  0.31392663  0.49680336     2.39800
O969        O  0.71819688  0.27782112  0.45124661    -0.93500
O970        O  0.79000066  0.28296091  0.54389252    -0.92400
C971        C  0.75609143  0.33877113  0.61296703     1.01700
C972        C  0.74827269  0.33187542  0.37748664     1.00400
C973        C  0.85187233  0.25147307  0.60629149     0.99800
C974        C  0.66904061  0.23882911  0.61730863     1.01800
C975        C  0.66285285  0.24402271  0.38712810     1.00700
C976        C  0.84145359  0.24994109  0.37902777     0.99600
C977        C  0.83422049  0.34030712  0.48953700     0.99600
C978        C  0.66648670  0.33037552  0.50696528     1.02300
H979        H  0.79906552  0.29579668  0.42875656     0.29600
O980        O  0.78589724  0.28071451  0.44819996    -1.05600
H981        H  0.70765958  0.29353681  0.56695016     0.31700
O982        O  0.72187326  0.27951359  0.54789039    -1.08200
N983        N  0.95152351  0.99749360  0.46294703    -0.37200
N984        N  0.50228622  0.44515942  0.47447694    -0.57800
N985        N  0.55047423  0.99069507  0.50480865    -0.37200
N986        N  0.50198113  0.04557584  0.49403129    -0.57800
C987        C  0.93301831  0.47264464  0.44981636     0.26300
C988        C  0.93423279  0.02669967  0.45462795     0.26300
C989        C  0.57225681  0.46614382  0.50607615     0.26300
C990        C  0.57142040  0.01846426  0.50816181     0.26300
C991        C  0.97399580  0.42509202  0.45558697     0.35000
C992        C  0.52921109  0.42394446  0.47502414     0.35000
C993        C  0.97283070  0.06655188  0.49669449     0.35000
C994        C  0.52671678  0.06214430  0.51732381     0.35000
C995        C  0.90355176  0.48588224  0.43047980    -0.22500
C996        C  0.90460787  0.01918068  0.43024871    -0.22500
C997        C  0.60478484  0.47454498  0.52184881    -0.22500
C998        C  0.60488504  0.00765582  0.50655568    -0.22500
C999        C  0.98339173  0.39130494  0.44878907    -0.23600
C1000       C  0.51926126  0.39131755  0.46088622    -0.23600
C1001       C  0.97943801  0.09595289  0.52195440    -0.23600
C1002       C  0.51435559  0.09244768  0.53530082    -0.23600
C1003       C  0.94051399  0.43755394  0.45366702    -0.18900
C1004       C  0.94199715  0.05884648  0.47429542    -0.18900
C1005       C  0.56125655  0.05302312  0.51526003    -0.18900
C1006       C  0.56170785  0.43255296  0.49258896    -0.18900
H1007       H  0.88282476  0.47185525  0.41461058     0.14000
H1008       H  0.88479988  0.03689249  0.41969171     0.14000
H1009       H  0.62591194  0.45755575  0.52907230     0.14000
H1010       H  0.62784918  0.02293612  0.50767477     0.14000
H1011       H  0.96697578  0.36978621  0.44050940     0.12300
H1012       H  0.53498961  0.36868979  0.45734304     0.12300
H1013       H  0.96185764  0.11635668  0.53015564     0.12300
H1014       H  0.52855139  0.11173426  0.55404502     0.12300
H1015       H  0.97110498  0.99463899  0.48648601     0.25500
H1016       H  0.52430334  0.99016960  0.50861562     0.25500
O1017       O  0.00021781  0.43753338  0.87191774    -0.80800
O1018       O  0.98954440  0.43668616  0.13078211    -0.82300
O1019       O  0.55385184  0.40894991  0.99652188    -0.79300
O1020       O  0.94178067  0.39854353  0.99889327    -0.77700
O1021       O  0.89803059  0.43722427  0.99668433    -0.79500
O1022       O  0.59151170  0.45352043  0.00114442    -0.80400
O1023       O  0.99511461  0.39900181  0.07153573    -0.81800
O1024       O  0.99772006  0.39959313  0.93053355    -0.82100
Eu1025     Eu  0.99541756  0.43086137  0.00109996     2.39200
O1026       O  0.95739496  0.46198787  0.04661164    -0.89600
O1027       O  0.52722404  0.46663144  0.95445290    -0.93200
C1028       C  0.00092136  0.40622317  0.88823965     1.01500
C1029       C  0.99272504  0.40571776  0.11403460     1.01300
C1030       C  0.58432000  0.42156058  0.99752560     1.01300
C1031       C  0.90993551  0.40647872  0.99772486     0.99100
H1032       H  0.53945068  0.45253016  0.06881352     0.28900
O1033       O  0.52433096  0.46645914  0.05059056    -1.02000
H1034       H  0.94673742  0.44686920  0.93339126     0.28900
O1035       O  0.95967845  0.46262349  0.95224935    -1.04500
O1036       O  0.98441813  0.05531656  0.13576453    -0.81700
O1037       O  0.98801692  0.06057523  0.87313775    -0.81300
O1038       O  0.58395965  0.50173989  0.07692431    -0.79700
O1039       O  0.89033374  0.49231739  0.06952945    -0.83000
O1040       O  0.89500606  0.49191972  0.92300579    -0.80900
O1041       O  0.58869857  0.00611581  0.93283132    -0.79500
O1042       O  0.53601394  0.10032440  0.00961405    -0.81100
O1043       O  0.92843087  0.09086972  0.00960924    -0.83000
O1044       O  0.58056407  0.06276461  0.01008992    -0.79700
O1045       O  0.89034972  0.04653538  0.00769389    -0.82400
O1046       O  0.54497854  0.50202720  0.13377184    -0.78100
O1047       O  0.55172479  0.00539282  0.87283594    -0.78200
O1048       O  0.93558051  0.99710631  0.86772684    -0.77800
O1049       O  0.92695127  0.49559632  0.12966720    -0.81300
O1050       O  0.98449364  0.09280698  0.07697030    -0.80700
O1051       O  0.98589988  0.09833335  0.93188866    -0.79100
Eu1052     Eu  0.98711912  0.49777215  0.09856912     2.39800
Eu1053     Eu  0.99249563  0.99970947  0.90496932     2.39600
Eu1054     Eu  0.55609943  0.50385014  0.00419619     2.38400
Eu1055     Eu  0.92209029  0.49464159  0.99800136     2.39900
Eu1056     Eu  0.98515736  0.06604256  0.00318004     2.39800
O1057       O  0.95436054  0.03022157  0.95340090    -0.93500
O1058       O  0.52166145  0.03417417  0.05205600    -0.92400
C1059       C  0.98291916  0.08647684  0.11944442     1.01700
C1060       C  0.98639806  0.09184199  0.88908339     1.00400
C1061       C  0.57617541  0.50268275  0.11891742     0.99800
C1062       C  0.89616417  0.49382889  0.11263405     1.01800
C1063       C  0.90471661  0.99486589  0.88244700     1.00700
C1064       C  0.58243179  0.00737010  0.88996951     0.99600
C1065       C  0.56779872  0.09319345  0.01186575     0.99600
C1066       C  0.89813164  0.07855058  0.01175905     1.02300
H1067       H  0.53652772  0.05201694  0.93805260     0.29600
O1068       O  0.52309427  0.03579914  0.95505518    -1.05600
H1069       H  0.93917999  0.04146863  0.06833898     0.31700
O1070       O  0.95460618  0.02840663  0.04973609    -1.08200
N1071       N  0.79119588  0.24343664  0.01617150    -0.37200
N1072       N  0.73552972  0.19709370  0.03371144    -0.57800
N1073       N  0.68848183  0.25294140  0.01146266    -0.37200
N1074       N  0.74427361  0.29862895  0.99619694    -0.57800
C1075       C  0.80788398  0.21669536  0.03523771     0.26300
C1076       C  0.81226311  0.27079777  0.01822758     0.26300
C1077       C  0.66706650  0.22897271  0.02785178     0.26300
C1078       C  0.67204596  0.28346517  0.01252269     0.26300
C1079       C  0.76118288  0.17413368  0.03104195     0.35000
C1080       C  0.70648552  0.17904976  0.02764327     0.35000
C1081       C  0.77337302  0.31338584  0.98252366     0.35000
C1082       C  0.71872906  0.31920203  0.98209729     0.35000
C1083       C  0.84011971  0.22704097  0.04926661    -0.22500
C1084       C  0.84268209  0.26144111  0.03922701    -0.22500
C1085       C  0.63632956  0.24418945  0.03877639    -0.22500
C1086       C  0.63961000  0.27872285  0.02960656    -0.22500
C1087       C  0.74838540  0.14125723  0.02477419    -0.23600
C1088       C  0.71363511  0.14437732  0.02254564    -0.23600
C1089       C  0.76635761  0.34342772  0.95884896    -0.23600
C1090       C  0.73154220  0.34720884  0.95876437    -0.23600
C1091       C  0.79602540  0.18256006  0.03469825    -0.18900
C1092       C  0.80581905  0.30298049  0.99790105    -0.18900
C1093       C  0.68469422  0.31483343  0.99518968    -0.18900
C1094       C  0.67352433  0.19334696  0.02830617    -0.18900
H1095       H  0.86004090  0.21135848  0.06416995     0.14000
H1096       H  0.86494666  0.27734515  0.04496979     0.14000
H1097       H  0.61371762  0.23166798  0.05138932     0.14000
H1098       H  0.61996740  0.29792151  0.03371265     0.14000
H1099       H  0.76258079  0.11755933  0.02181579     0.12300
H1100       H  0.69571432  0.12351878  0.01763544     0.12300
H1101       H  0.78449863  0.36146779  0.94502965     0.12300
H1102       H  0.71740250  0.36859430  0.94454832     0.12300
H1103       H  0.76890459  0.24174616  0.99693776     0.25500
H1104       H  0.71110186  0.24766867  0.99498118     0.25500
C1105       C  0.53506410  0.24718429  0.27903901     0.85900
C1106       C  0.52993344  0.21507006  0.24961053    -0.54400
C1107       C  0.99960655  0.21392962  0.22337434     0.08800
C1108       C  0.97728879  0.24683060  0.22895876     0.19700
C1109       C  0.53162605  0.27791378  0.24719370    -0.55100
C1110       C  0.00094535  0.27851784  0.22089354     0.08900
C1111       C  0.99970137  0.24660531  0.30650772    -0.54600
C1112       C  0.97008701  0.24738158  0.28039023     0.09500
H1113       H  0.54623454  0.19269216  0.25223339     0.14000
H1114       H  0.95395663  0.24708076  0.20745557    -0.00300
H1115       H  0.55062988  0.29821933  0.24640848     0.14300
H1116       H  0.99914045  0.24559678  0.34327454     0.14100
C1117       C  0.70472831  0.49749253  0.22598974     0.85900
C1118       C  0.70912733  0.46396321  0.25234627    -0.54400
C1119       C  0.73771565  0.46156828  0.27850569     0.08800
C1120       C  0.76097606  0.49425724  0.27506157     0.19700
C1121       C  0.71110306  0.01988547  0.26116602    -0.55100
C1122       C  0.73922737  0.02118976  0.28841731     0.08900
C1123       C  0.73812565  0.49809902  0.19800575    -0.54600
C1124       C  0.76857864  0.49740667  0.22289566     0.09500
H1125       H  0.69208641  0.44219479  0.24813200     0.14000
H1126       H  0.78277762  0.49353401  0.29858897    -0.00300
H1127       H  0.69202062  0.04006146  0.26116507     0.14300
H1128       H  0.73734419  0.49773676  0.16123031     0.14100
C1129       C  0.54116116  0.24398164  0.72378715     0.85900
C1130       C  0.53847392  0.27417220  0.75728098    -0.54400
C1131       C  0.01010995  0.28004982  0.77787915     0.08800
C1132       C  0.98489000  0.25020217  0.76654477     0.19700
C1133       C  0.53332107  0.21296490  0.75469175    -0.55100
C1134       C  0.00516677  0.21604041  0.77634069     0.08900
C1135       C  0.01114747  0.24849167  0.69232465    -0.54600
C1136       C  0.98038372  0.25085178  0.71401890     0.09500
H1137       H  0.55978535  0.29036169  0.76691901     0.14000
H1138       H  0.96057388  0.25294365  0.78468946    -0.00300
H1139       H  0.55069302  0.19148279  0.75873403     0.14300
H1140       H  0.01308048  0.24654781  0.65573939     0.14100
C1141       C  0.71174996  0.49588246  0.78487371     0.85900
C1142       C  0.71897474  0.03395531  0.75937137    -0.54400
C1143       C  0.74574652  0.03279609  0.73011300     0.08800
C1144       C  0.76556674  0.49638284  0.73225875     0.19700
C1145       C  0.71279170  0.46668883  0.74989131    -0.55100
C1146       C  0.74083343  0.46549643  0.72316391     0.08900
C1147       C  0.74625444  0.49085512  0.81048258    -0.54600
C1148       C  0.77463259  0.49225363  0.78325685     0.09500
H1149       H  0.70546641  0.05743156  0.76682420     0.14000
H1150       H  0.78813342  0.49578063  0.71025818    -0.00300
H1151       H  0.69484693  0.44552469  0.75039254     0.14300
H1152       H  0.74837797  0.48698227  0.84684559     0.14100
C1153       C  0.63870512  0.48613057  0.21778789    -0.02500
C1154       C  0.66961322  0.50076806  0.20068111     0.07200
C1155       C  0.66977453  0.01919686  0.16639170    -0.02600
C1156       C  0.63927496  0.02162340  0.14077260    -0.02600
C1157       C  0.60649550  0.50481102  0.15033363     0.07300
C1158       C  0.60801675  0.48688995  0.19184871    -0.02800
Br1159     Br  0.56846038  0.46224758  0.21314627    -0.01300
Br1160     Br  0.63450300  0.47132580  0.28005817    -0.01400
Br1161     Br  0.63650121  0.05579029  0.09310590    -0.01400
Br1162     Br  0.70148429  0.05656718  0.16049796    -0.01400
C1163       C  0.86577916  0.48589378  0.19031113    -0.02500
C1164       C  0.86476851  0.49477800  0.14333093     0.07200
C1165       C  0.83889536  0.01030902  0.13491533    -0.02600
C1166       C  0.81169012  0.01542996  0.16486322    -0.02600
C1167       C  0.80380655  0.49874325  0.19929239     0.07300
C1168       C  0.83536259  0.48536369  0.21698230    -0.02800
Br1169     Br  0.83977244  0.46686608  0.27754288    -0.01300
Br1170     Br  0.90843456  0.47315319  0.21907686    -0.01400
Br1171     Br  0.78526062  0.05649259  0.15646268    -0.01400
Br1172     Br  0.83194009  0.02745662  0.07402335    -0.01400
C1173       C  0.52347440  0.31863675  0.15971048    -0.02500
C1174       C  0.99534116  0.30885689  0.18916613     0.07200
C1175       C  0.96628638  0.33055894  0.19106172    -0.02600
C1176       C  0.96592816  0.36293692  0.16843430    -0.02600
C1177       C  0.99445962  0.37437226  0.14389001     0.07300
C1178       C  0.52257532  0.35038758  0.13657836    -0.02800
Br1179     Br  0.55931263  0.36131292  0.09611254    -0.01300
Br1180     Br  0.56077267  0.28728112  0.14863778    -0.01400
Br1181     Br  0.92535679  0.39066856  0.16802594    -0.01400
Br1182     Br  0.92611960  0.31621549  0.22257594    -0.01400
C1183       C  0.48409419  0.18340082  0.15151923    -0.02500
C1184       C  0.98966629  0.18137519  0.19874368     0.07200
C1185       C  0.98913908  0.14905128  0.22143040    -0.02600
C1186       C  0.98442738  0.11792708  0.19689173    -0.02600
C1187       C  0.98022489  0.11851455  0.14900886     0.07300
C1188       C  0.47701072  0.15299789  0.12699499    -0.02800
Br1189     Br  0.45658251  0.15915421  0.06727645    -0.01300
Br1190     Br  0.48620445  0.22685260  0.11982160    -0.01400
Br1191     Br  0.98126450  0.07533436  0.23033315    -0.01400
Br1192     Br  0.99353283  0.14712160  0.28688216    -0.01400
C1193       C  0.64242714  0.35234968  0.95437290    -0.02500
C1194       C  0.66176311  0.34507314  0.99375007     0.07200
C1195       C  0.65913031  0.36641979  0.03222315    -0.02600
C1196       C  0.63442021  0.39247929  0.03306277    -0.02600
C1197       C  0.61312098  0.39769703  0.99490675     0.07300
C1198       C  0.61935910  0.37988255  0.95435224    -0.02800
Br1199     Br  0.59919901  0.39576746  0.89817378    -0.01300
Br1200     Br  0.64689898  0.32410989  0.90110520    -0.01400
Br1201     Br  0.62975104  0.42099021  0.08629626    -0.01400
Br1202     Br  0.68900126  0.35958706  0.08388424    -0.01400
C1203       C  0.88514447  0.35230271  0.96578412    -0.02500
C1204       C  0.88482174  0.37860643  0.99872345     0.07200
C1205       C  0.85937622  0.37913543  0.03212377    -0.02600
C1206       C  0.83382901  0.35410691  0.03187985    -0.02600
C1207       C  0.83342729  0.32867399  0.99804674     0.07300
C1208       C  0.85933508  0.32727454  0.96552219    -0.02800
Br1209     Br  0.85912403  0.29116519  0.92069013    -0.01300
Br1210     Br  0.91971885  0.35129630  0.91974512    -0.01400
Br1211     Br  0.79972634  0.35405603  0.07871186    -0.01400
Br1212     Br  0.85981899  0.41330247  0.07954940    -0.01400
C1213       C  0.86340860  0.11555157  0.06289277    -0.02500
C1214       C  0.87049510  0.10317970  0.01895282     0.07200
C1215       C  0.85245556  0.11586350  0.98118277    -0.02600
C1216       C  0.82827026  0.14186170  0.98664669    -0.02600
C1217       C  0.82145838  0.15475310  0.03028984     0.07300
C1218       C  0.83866483  0.14128965  0.06859202    -0.02800
Br1219     Br  0.82859153  0.15845051  0.12840059    -0.01300
Br1220     Br  0.88713469  0.09699349  0.11517160    -0.01400
Br1221     Br  0.80481039  0.16026502  0.93398203    -0.01400
Br1222     Br  0.86139595  0.09785901  0.92175320    -0.01400
C1223       C  0.60661247  0.13521226  0.97696178    -0.02500
C1224       C  0.59144262  0.12193241  0.01611092     0.07200
C1225       C  0.59994831  0.13518664  0.05919411    -0.02600
C1226       C  0.62707926  0.15849776  0.06362709    -0.02600
C1227       C  0.64413987  0.16980819  0.02458231     0.07300
C1228       C  0.63344826  0.15872038  0.98118430    -0.02800
Br1229     Br  0.65634550  0.17489790  0.92764948    -0.01300
Br1230     Br  0.58872975  0.12307655  0.91777256    -0.01400
Br1231     Br  0.64157876  0.17403410  0.12286285    -0.01400
Br1232     Br  0.57340588  0.12262014  0.11138044    -0.01400
C1233       C  0.83428944  0.46688303  0.79512638    -0.02500
C1234       C  0.81035023  0.49354012  0.80232848     0.07200
C1235       C  0.83056863  0.02497127  0.81078460    -0.02600
C1236       C  0.86437497  0.02319256  0.82768938    -0.02600
C1237       C  0.87604260  0.99317671  0.84937687     0.07300
C1238       C  0.86584356  0.46659475  0.81916686    -0.02800
Br1239     Br  0.89597315  0.42788779  0.81449813    -0.01300
Br1240     Br  0.82489208  0.43114295  0.75189430    -0.01400
Br1241     Br  0.89487103  0.06172990  0.82140423    -0.01400
Br1242     Br  0.81078800  0.06956338  0.80037040    -0.01400
C1243       C  0.64398378  0.02652244  0.87811741    -0.02500
C1244       C  0.61363506  0.01107374  0.86025522     0.07200
C1245       C  0.61603708  0.48557602  0.82126474    -0.02600
C1246       C  0.64571118  0.48641366  0.79435633    -0.02600
C1247       C  0.67778298  0.49810367  0.81259786     0.07300
C1248       C  0.67513519  0.02494856  0.85445376    -0.02800
Br1249     Br  0.71260403  0.05342842  0.87578527    -0.01300
Br1250     Br  0.64360203  0.05288425  0.93382143    -0.01400
Br1251     Br  0.63784811  0.47980812  0.72988174    -0.01400
Br1252     Br  0.57761700  0.45829102  0.80080568    -0.01400
C1253       C  0.49284000  0.11926661  0.81117973    -0.02500
C1254       C  0.98573096  0.12318211  0.85752805     0.07200
C1255       C  0.97552931  0.15630417  0.87382041    -0.02600
C1256       C  0.98133197  0.18670128  0.84806342    -0.02600
C1257       C  0.99346920  0.18467045  0.80327302     0.07300
C1258       C  0.49302523  0.14918243  0.78380079    -0.02800
Br1259     Br  0.48776220  0.14353155  0.71938005    -0.01300
Br1260     Br  0.50746340  0.07668204  0.78399079    -0.01400
Br1261     Br  0.97088245  0.23077103  0.87421684    -0.01400
Br1262     Br  0.94996753  0.16108898  0.92923361    -0.01400
C1263       C  0.01980808  0.34352842  0.87671507    -0.02500
C1264       C  0.00516720  0.37449414  0.85846724     0.07200
C1265       C  0.49026085  0.37129082  0.81416694    -0.02600
C1266       C  0.48783311  0.33956461  0.79042517    -0.02600
C1267       C  0.00450533  0.31083914  0.80813307     0.07300
C1268       C  0.02163427  0.31317788  0.85029858    -0.02800
Br1269     Br  0.04955906  0.27513507  0.87096880    -0.01300
Br1270     Br  0.03917672  0.34092720  0.93742377    -0.01400
Br1271     Br  0.46418293  0.33837807  0.73324670    -0.01400
Br1272     Br  0.47804168  0.41301505  0.78259252    -0.01400
C1273       C  0.91187083  0.27370592  0.62310845    -0.02500
C1274       C  0.88338259  0.25357230  0.63627388     0.07200
C1275       C  0.88681097  0.23295101  0.67541526    -0.02600
C1276       C  0.91760928  0.23257539  0.70124884    -0.02600
C1277       C  0.94630028  0.25277175  0.68836387     0.07300
C1278       C  0.94253775  0.27387220  0.64905625    -0.02800
Br1279     Br  0.97856643  0.30473444  0.62990324    -0.01300
Br1280     Br  0.91003447  0.30113652  0.56831497    -0.01400
Br1281     Br  0.91954169  0.20165091  0.75224661    -0.01400
Br1282     Br  0.85036378  0.20183664  0.69102845    -0.01400
C1283       C  0.62922419  0.26886661  0.66970014    -0.02500
C1284       C  0.63997112  0.23787123  0.65008792     0.07200
C1285       C  0.61689027  0.20991978  0.65015818    -0.02600
C1286       C  0.58547009  0.21186560  0.67336564    -0.02600
C1287       C  0.57547041  0.24231517  0.69657614     0.07300
C1288       C  0.59644973  0.27192973  0.68911122    -0.02800
Br1289     Br  0.57793744  0.31806246  0.69010600    -0.01300
Br1290     Br  0.65749083  0.30911300  0.66256813    -0.01400
Br1291     Br  0.55438832  0.17413161  0.66506912    -0.01400
Br1292     Br  0.62649341  0.16962865  0.61440139    -0.01400
C1293       C  0.73215781  0.12158154  0.67294100    -0.02500
C1294       C  0.76314521  0.12927586  0.65261781     0.07200
C1295       C  0.79001094  0.10557660  0.65780859    -0.02600
C1296       C  0.78555092  0.07412959  0.68226551    -0.02600
C1297       C  0.75279258  0.06459491  0.69956464     0.07300
C1298       C  0.72565387  0.08851521  0.69032107    -0.02800
Br1299     Br  0.67782813  0.07595174  0.69096789    -0.01300
Br1300     Br  0.69844315  0.15718010  0.67793033    -0.01400
Br1301     Br  0.82533815  0.04566192  0.68906523    -0.01400
Br1302     Br  0.83403694  0.11862047  0.63511855    -0.01400
C1303       C  0.75787633  0.43451098  0.65067381    -0.02500
C1304       C  0.74879004  0.43291842  0.69663846     0.07200
C1305       C  0.74564680  0.39976834  0.71683316    -0.02600
C1306       C  0.74748501  0.36927145  0.69032371    -0.02600
C1307       C  0.75591970  0.37071194  0.64348672     0.07300
C1308       C  0.76282935  0.40410866  0.62497721    -0.02800
Br1309     Br  0.78030734  0.41029222  0.56435229    -0.01300
Br1310     Br  0.76172899  0.47884885  0.62155577    -0.01400
Br1311     Br  0.73649396  0.32620505  0.71949312    -0.01400
Br1312     Br  0.74154902  0.39532094  0.78213136    -0.01400
C1313       C  0.88718097  0.08099129  0.50153937    -0.02500
C1314       C  0.91546239  0.08520163  0.47356343     0.07200
C1315       C  0.91769736  0.11322858  0.44362402    -0.02600
C1316       C  0.89264309  0.13878466  0.44440762    -0.02600
C1317       C  0.86478913  0.13520523  0.47384627     0.07300
C1318       C  0.86052172  0.10439343  0.49880582    -0.02800
Br1319     Br  0.81790338  0.09139198  0.52650853    -0.01300
Br1320     Br  0.88540395  0.04365123  0.54483554    -0.01400
Br1321     Br  0.89471720  0.17607401  0.40147623    -0.01400
Br1322     Br  0.95482234  0.11615188  0.40150202    -0.01400
C1323       C  0.61518091  0.08116060  0.54631316    -0.02500
C1324       C  0.58751552  0.08123470  0.51517490     0.07200
C1325       C  0.58632900  0.10688745  0.48097015    -0.02600
C1326       C  0.61195298  0.13217962  0.47873459    -0.02600
C1327       C  0.64104642  0.13012920  0.50742015     0.07300
C1328       C  0.64315887  0.10324071  0.53960552    -0.02800
Br1329     Br  0.68452214  0.09556248  0.57390253    -0.01300
Br1330     Br  0.61467843  0.05130622  0.59880753    -0.01400
Br1331     Br  0.60789039  0.16800712  0.43337928    -0.01400
Br1332     Br  0.55069853  0.10700872  0.43495112    -0.01400
C1333       C  0.61727482  0.40784119  0.47194511    -0.02500
C1334       C  0.58711297  0.40470591  0.49624393     0.07200
C1335       C  0.58276531  0.37677903  0.52618289    -0.02600
C1336       C  0.60749980  0.35075408  0.52773914    -0.02600
C1337       C  0.63982844  0.35702515  0.50823932     0.07300
C1338       C  0.64532804  0.38856866  0.48548153    -0.02800
Br1339     Br  0.68948981  0.41050980  0.48114141    -0.01300
Br1340     Br  0.62027244  0.43959365  0.42193322    -0.01400
Br1341     Br  0.59631313  0.30812855  0.55787462    -0.01400
Br1342     Br  0.54377129  0.37435788  0.56544972    -0.01400
C1343       C  0.86468372  0.37868061  0.43628610    -0.02500
C1344       C  0.85856228  0.36826849  0.48125814     0.07200
C1345       C  0.87640032  0.38396719  0.51728035    -0.02600
C1346       C  0.90306526  0.40688197  0.50784281    -0.02600
C1347       C  0.91206553  0.41366599  0.46240857     0.07300
C1348       C  0.89278541  0.39958351  0.42655785    -0.02800
Br1349     Br  0.90582065  0.40747188  0.36450831    -0.01300
Br1350     Br  0.83407761  0.36496770  0.38820908    -0.01400
Br1351     Br  0.92748458  0.42886327  0.55717488    -0.01400
Br1352     Br  0.86275190  0.37609500  0.57907653    -0.01400
C1353       C  0.60625763  0.27022247  0.36741021    -0.02500
C1354       C  0.63229494  0.24666975  0.35672087     0.07200
C1355       C  0.62858168  0.22665689  0.31727085    -0.02600
C1356       C  0.59925161  0.23019306  0.28943386    -0.02600
C1357       C  0.56987889  0.24816794  0.30523728     0.07300
C1358       C  0.57556218  0.27107589  0.34204021    -0.02800
Br1359     Br  0.54484484  0.30820444  0.35409163    -0.01300
Br1360     Br  0.61327134  0.30350212  0.41529738    -0.01400
Br1361     Br  0.60532463  0.21974264  0.22585080    -0.01400
Br1362     Br  0.66292055  0.19344496  0.30136683    -0.01400
C1363       C  0.89868145  0.27546159  0.35851875    -0.02500
C1364       C  0.87101472  0.25346372  0.34690434     0.07200
C1365       C  0.87466700  0.23229453  0.30825559    -0.02600
C1366       C  0.90695129  0.22894457  0.28716452    -0.02600
C1367       C  0.93480417  0.25031314  0.30034139     0.07300
C1368       C  0.92858266  0.27591626  0.33285699    -0.02800
Br1369     Br  0.95860951  0.31489815  0.33864852    -0.01300
Br1370     Br  0.89791708  0.30489143  0.41081054    -0.01400
Br1371     Br  0.91242372  0.19329624  0.24272038    -0.01400
Br1372     Br  0.83613726  0.20689846  0.28481755    -0.01400
C1373       C  0.76567682  0.36882398  0.30798044    -0.02500
C1374       C  0.74424587  0.36168560  0.34519344     0.07200
C1375       C  0.71942817  0.38608076  0.35577587    -0.02600
C1376       C  0.72186200  0.42000469  0.33976405    -0.02600
C1377       C  0.74392822  0.42842391  0.30405460     0.07300
C1378       C  0.76353409  0.40130868  0.28551552    -0.02800
Br1379     Br  0.78336074  0.40689680  0.22654723    -0.01300
Br1380     Br  0.79590460  0.33398452  0.28565882    -0.01400
Br1381     Br  0.69503604  0.45486080  0.36750118    -0.01400
Br1382     Br  0.67779611  0.36969404  0.38177700    -0.00400
C1383       C  0.71635008  0.06702303  0.34240266    -0.02500
C1384       C  0.74444377  0.05306917  0.31824463     0.07200
C1385       C  0.77485104  0.07305327  0.31765546    -0.02600
C1386       C  0.77716397  0.10472582  0.34152367    -0.02600
C1387       C  0.74813438  0.11975925  0.36077555     0.07300
C1388       C  0.71774394  0.10055394  0.36094948    -0.02800
Br1389     Br  0.67784009  0.12024353  0.38810428    -0.01300
Br1390     Br  0.67586633  0.04007572  0.35335940    -0.01400
Br1391     Br  0.82082302  0.12620620  0.35161879    -0.01400
Br1392     Br  0.81309585  0.05991654  0.28177632    -0.01400
O1393       O  0.75586786  0.67828729  0.38440597    -0.80800
O1394       O  0.76124635  0.69330888  0.64420342    -0.82300
O1395       O  0.81035839  0.65234268  0.50181864    -0.79300
O1396       O  0.69938235  0.65031289  0.51077910    -0.77700
O1397       O  0.65755843  0.69075898  0.50755016    -0.79500
O1398       O  0.85155636  0.69361744  0.50286353    -0.80400
O1399       O  0.76076459  0.65121514  0.58970054    -0.81800
O1400       O  0.75613480  0.64211898  0.44603254    -0.82100
Eu1401     Eu  0.75580776  0.67805656  0.51376944     2.39200
O1402       O  0.72230122  0.71340252  0.55909427    -0.89600
O1403       O  0.78889921  0.71098739  0.46389428    -0.93200
C1404       C  0.75577687  0.64774340  0.40293390     1.01500
C1405       C  0.76192869  0.66117198  0.63154868     1.01300
C1406       C  0.84134418  0.66221932  0.49956379     1.01300
C1407       C  0.66784524  0.65955659  0.50868720     0.99100
H1408       H  0.80650987  0.70181595  0.57589882     0.28900
O1409       O  0.79097439  0.71511499  0.55733252    -1.02000
H1410       H  0.70721361  0.69353624  0.44560222     0.28900
O1411       O  0.72146647  0.70892073  0.46269361    -1.04500
O1412       O  0.75456718  0.81273998  0.63094982    -0.81700
O1413       O  0.75128824  0.79680357  0.36932968    -0.81300
O1414       O  0.85367090  0.75509286  0.57775905    -0.79700
O1415       O  0.66002208  0.74225578  0.58144830    -0.83000
O1416       O  0.65766504  0.74155456  0.43557602    -0.80900
O1417       O  0.85146649  0.74762597  0.43474459    -0.79500
O1418       O  0.80499234  0.84714503  0.49260446    -0.81100
O1419       O  0.69770735  0.84164037  0.50730354    -0.83000
O1420       O  0.84733096  0.80697271  0.49431816    -0.79700
O1421       O  0.65806972  0.79928257  0.51005338    -0.82400
O1422       O  0.81578722  0.75803609  0.63600946    -0.78100
O1423       O  0.81393638  0.74442967  0.37581225    -0.78200
O1424       O  0.69558422  0.74045686  0.37724404    -0.77800
O1425       O  0.69915146  0.74697061  0.63949477    -0.81300
O1426       O  0.75401082  0.84891930  0.57071659    -0.80700
O1427       O  0.74784760  0.83815027  0.42443619    -0.79100
Eu1428     Eu  0.75696275  0.75085773  0.60360736     2.39800
Eu1429     Eu  0.75477538  0.74070716  0.41083513     2.39600
Eu1430     Eu  0.82254566  0.74918037  0.50653796     2.38400
Eu1431     Eu  0.68787946  0.74464232  0.50807356     2.39900
Eu1432     Eu  0.75287257  0.81448118  0.50152057     2.39800
O1433       O  0.71994226  0.77696449  0.45652232    -0.93500
O1434       O  0.78897995  0.78457286  0.55201888    -0.92400
C1435       C  0.75409904  0.84363532  0.61372957     1.01700
C1436       C  0.74841759  0.82848698  0.38250397     1.00400
C1437       C  0.84646473  0.75846219  0.61999204     0.99800
C1438       C  0.66817265  0.74354631  0.62385388     1.01800
C1439       C  0.66479578  0.74113067  0.39307078     1.00700
C1440       C  0.84493202  0.74700890  0.39210846     0.99600
C1441       C  0.83627526  0.83804266  0.48970383     0.99600
C1442       C  0.66689110  0.83104963  0.51010992     1.02300
H1443       H  0.80009899  0.79319074  0.43651070     0.29600
O1444       O  0.78693205  0.77914757  0.45638142    -1.05600
H1445       H  0.70663356  0.79612277  0.57081436     0.31700
O1446       O  0.72117726  0.78161300  0.55289364    -1.08200
N1447       N  0.95216973  0.49818020  0.46756775    -0.37200
N1448       N  0.50156423  0.94252443  0.46356620    -0.57800
N1449       N  0.55363026  0.49519878  0.50290556    -0.37200
N1450       N  0.50292776  0.54747902  0.51140509    -0.57800
C1451       C  0.93322407  0.97151217  0.44490354     0.26300
C1452       C  0.93532619  0.52771950  0.45948903     0.26300
C1453       C  0.57035827  0.96264281  0.50045691     0.26300
C1454       C  0.57388817  0.52168263  0.51588746     0.26300
C1455       C  0.97432206  0.92427596  0.45663794     0.35000
C1456       C  0.52662443  0.91991550  0.47283862     0.35000
C1457       C  0.97533479  0.56772037  0.49862774     0.35000
C1458       C  0.52955261  0.56618748  0.52611488     0.35000
C1459       C  0.90369755  0.98406801  0.42489437    -0.22500
C1460       C  0.90531885  0.52087941  0.43574403    -0.22500
C1461       C  0.60423343  0.97267159  0.50518677    -0.22500
C1462       C  0.60625751  0.50953407  0.52569365    -0.22500
C1463       C  0.98322306  0.88991092  0.45685540    -0.23600
C1464       C  0.51572834  0.88670814  0.46306573    -0.23600
C1465       C  0.98343512  0.59802463  0.52113480    -0.23600
C1466       C  0.51883618  0.59795376  0.54154616    -0.23600
C1467       C  0.94092600  0.93659500  0.45075057    -0.18900
C1468       C  0.94361834  0.55966939  0.47911193    -0.18900
C1469       C  0.56358610  0.55625082  0.52114850    -0.18900
C1470       C  0.55913974  0.92857943  0.49034283    -0.18900
H1471       H  0.88343918  0.96936870  0.40892873     0.14000
H1472       H  0.88586802  0.53906148  0.42543043     0.14000
H1473       H  0.62689947  0.95713811  0.50614873     0.14000
H1474       H  0.62854666  0.52381624  0.53632905     0.14000
H1475       H  0.96677245  0.86791392  0.45157176     0.12300
H1476       H  0.53007898  0.86307024  0.46577009     0.12300
H1477       H  0.96654234  0.61895776  0.52957315     0.12300
H1478       H  0.53448966  0.61875671  0.55447958     0.12300
H1479       H  0.97207091  0.49495574  0.49070867     0.25500
H1480       H  0.52950084  0.49728002  0.48888251     0.25500
O1481       O  0.99614636  0.93866022  0.87033879    -0.80800
O1482       O  0.99289206  0.93546406  0.13176438    -0.82300
O1483       O  0.55676909  0.90920223  0.99478936    -0.79300
O1484       O  0.94375165  0.89698794  0.99647192    -0.77700
O1485       O  0.89992007  0.93545331  0.99482534    -0.79500
O1486       O  0.59389552  0.95442199  0.99791728    -0.80400
O1487       O  0.99715692  0.89813951  0.07204344    -0.81800
O1488       O  0.99503252  0.90035328  0.92910741    -0.82100
Eu1489     Eu  0.99686028  0.93037209  0.00077694     2.39200
O1490       O  0.95936239  0.96040841  0.04831418    -0.89600
O1491       O  0.52808356  0.96684032  0.95557575    -0.93200
C1492       C  0.99636734  0.90720601  0.88660759     1.01500
C1493       C  0.99558551  0.90453457  0.11487816     1.01300
C1494       C  0.58700299  0.92249487  0.99350198     1.01300
C1495       C  0.91186498  0.90472024  0.99421342     0.99100
H1496       H  0.54316000  0.95189489  0.06818467     0.28900
O1497       O  0.52743943  0.96575524  0.05046451    -1.02000
H1498       H  0.94758404  0.94785098  0.93439547     0.28900
O1499       O  0.96082448  0.96317755  0.95350326    -1.04500
O1500       O  0.98106420  0.55662205  0.13502316    -0.81700
O1501       O  0.99105622  0.55851684  0.87172374    -0.81300
O1502       O  0.58790192  0.00076458  0.07670089    -0.79700
O1503       O  0.89333661  0.98936100  0.07491315    -0.83000
O1504       O  0.89621242  0.99357433  0.92470891    -0.80900
O1505       O  0.58916361  0.50283608  0.93528768    -0.79500
O1506       O  0.53593508  0.60038289  0.00019539    -0.81100
O1507       O  0.93039064  0.59354920  0.99904024    -0.83000
O1508       O  0.57993721  0.56227072  0.00144004    -0.79700
O1509       O  0.89123102  0.55022189  0.99583274    -0.82400
O1510       O  0.54952489  0.00010651  0.13444279    -0.78100
O1511       O  0.55289336  0.50170831  0.87431205    -0.78200
O1512       O  0.93508098  0.49396651  0.86684161    -0.77800
O1513       O  0.93134213  0.99438906  0.13361798    -0.81300
O1514       O  0.98323904  0.59515827  0.07709305    -0.80700
O1515       O  0.98289639  0.59485959  0.93062495    -0.79100
Eu1516     Eu  0.99028909  0.99629251  0.09939509     2.39800
Eu1517     Eu  0.99288297  0.49818031  0.90461044     2.39600
Eu1518     Eu  0.55815360  0.00406849  0.00426605     2.38400
Eu1519     Eu  0.92309877  0.99310990  0.00082509     2.39900
Eu1520     Eu  0.98535667  0.56609616  0.00322421     2.39800
O1521       O  0.95562912  0.53011466  0.95235039    -0.93500
O1522       O  0.51977547  0.53440194  0.05241630    -0.92400
C1523       C  0.98052666  0.58806042  0.11962773     1.01700
C1524       C  0.98686768  0.58928766  0.88828701     1.00400
C1525       C  0.58052585  0.00053612  0.11905048     0.99800
C1526       C  0.90025192  0.99221479  0.11786683     1.01800
C1527       C  0.90382753  0.49241285  0.88098843     1.00700
C1528       C  0.58344488  0.50264646  0.89232363     0.99600
C1529       C  0.56767920  0.59291126  0.99926465     0.99600
C1530       C  0.89977460  0.58232624  0.99656245     1.02300
H1531       H  0.53522310  0.55042261  0.93748196     0.29600
O1532       O  0.52140526  0.53490019  0.95466987    -1.05600
H1533       H  0.93625397  0.54406829  0.06573049     0.31700
O1534       O  0.95200321  0.53033366  0.04856635    -1.08200
N1535       N  0.78966554  0.74485172  0.97909488    -0.37200
N1536       N  0.73322369  0.69824246  0.98325395    -0.57800
N1537       N  0.68710712  0.75523200  0.96386737    -0.37200
N1538       N  0.74462576  0.80097574  0.95990496    -0.57800
C1539       C  0.80408838  0.71729790  0.99914391     0.26300
C1540       C  0.81014614  0.77181241  0.98805549     0.26300
C1541       C  0.66463092  0.73059963  0.97563278     0.26300
C1542       C  0.67104060  0.78584218  0.96748710     0.26300
C1543       C  0.75889433  0.67519347  0.98253571     0.35000
C1544       C  0.70427039  0.68052249  0.97539638     0.35000
C1545       C  0.77445252  0.81688437  0.95249925     0.35000
C1546       C  0.72001210  0.82350577  0.94869485     0.35000
C1547       C  0.83412968  0.72667156  0.02099054    -0.22500
C1548       C  0.83784775  0.76133633  0.01429045    -0.22500
C1549       C  0.63338096  0.74551575  0.98472533    -0.22500
C1550       C  0.63749938  0.78041270  0.97995384    -0.22500
C1551       C  0.74632440  0.64251200  0.97445630    -0.23600
C1552       C  0.71153151  0.64582765  0.97033401    -0.23600
C1553       C  0.76887050  0.84950439  0.93498589    -0.23600
C1554       C  0.73419076  0.85390496  0.93322401    -0.23600
C1555       C  0.79306183  0.68339952  0.99263751    -0.18900
C1556       C  0.80566361  0.80498846  0.97020781    -0.18900
C1557       C  0.68550980  0.81849520  0.95878305    -0.18900
C1558       C  0.67130218  0.69492731  0.97690629    -0.18900
H1559       H  0.85189726  0.71008053  0.03883363     0.14000
H1560       H  0.85904125  0.77682639  0.02620239     0.14000
H1561       H  0.61005931  0.73265033  0.99413729     0.14000
H1562       H  0.61790759  0.79956239  0.98478201     0.14000
H1563       H  0.76059129  0.61876769  0.97298239     0.12300
H1564       H  0.69361984  0.62504793  0.96480756     0.12300
H1565       H  0.78775558  0.86892346  0.92754375     0.12300
H1566       H  0.72101843  0.87723973  0.92353697     0.12300
H1567       H  0.76995729  0.74424008  0.95517855     0.25500
H1568       H  0.71111328  0.75092484  0.95072189     0.25500
C1569       C  0.53835335  0.74372413  0.28046535     0.85900
C1570       C  0.53054404  0.71214780  0.25092626    -0.54400
C1571       C  0.99990198  0.71359368  0.22718199     0.08800
C1572       C  0.97944436  0.74770623  0.23469888     0.19700
C1573       C  0.53613152  0.77448516  0.24859235    -0.55100
C1574       C  0.00460673  0.77802844  0.22514652     0.08900
C1575       C  0.00446043  0.74600564  0.31070623    -0.54600
C1576       C  0.97377124  0.74815287  0.28699490     0.09500
H1577       H  0.54510523  0.68862469  0.25319790     0.14000
H1578       H  0.95579685  0.74991001  0.21414237    -0.00300
H1579       H  0.55655121  0.79327065  0.24643758     0.14300
H1580       H  0.00576260  0.74438181  0.34744471     0.14100
C1581       C  0.70923367  0.99082210  0.22672502     0.85900
C1582       C  0.71471664  0.95740234  0.25272851    -0.54400
C1583       C  0.74214802  0.95646303  0.28113376     0.08800
C1584       C  0.76412517  0.99035346  0.27909083     0.19700
C1585       C  0.70923608  0.52675587  0.25984463    -0.55100
C1586       C  0.73793515  0.52589314  0.28617252     0.08900
C1587       C  0.74348419  0.99346374  0.20071679    -0.54600
C1588       C  0.77310125  0.99363858  0.22738792     0.09500
H1589       H  0.69984086  0.93441048  0.24617212     0.14000
H1590       H  0.78572515  0.99061050  0.30323225    -0.00300
H1591       H  0.69115531  0.54780798  0.26131477     0.14300
H1592       H  0.74408269  0.99414532  0.16393428     0.14100
C1593       C  0.53831573  0.74698579  0.72361884     0.85900
C1594       C  0.53513871  0.77661675  0.75771879    -0.54400
C1595       C  0.00477374  0.77855962  0.78100720     0.08800
C1596       C  0.98073968  0.74790974  0.76981259     0.19700
C1597       C  0.53259698  0.71512044  0.75371686    -0.55100
C1598       C  0.00212621  0.71420182  0.77705221     0.08900
C1599       C  0.00561895  0.74874832  0.69457659    -0.54600
C1600       C  0.97547230  0.74975824  0.71786015     0.09500
H1601       H  0.55584159  0.79360969  0.76679201     0.14000
H1602       H  0.95681650  0.74912998  0.78926084    -0.00300
H1603       H  0.55072498  0.69412405  0.75599296     0.14300
H1604       H  0.00664455  0.74891560  0.65779583     0.14100
C1605       C  0.71192766  0.00235273  0.78810974     0.85900
C1606       C  0.71723184  0.52916627  0.75897496    -0.54400
C1607       C  0.74420191  0.53068446  0.73000881     0.08800
C1608       C  0.76620544  0.99812180  0.73748111     0.19700
C1609       C  0.71243875  0.97115775  0.75632533    -0.55100
C1610       C  0.74052190  0.96779166  0.73030935     0.08900
C1611       C  0.74548576  0.99768858  0.81560980    -0.54600
C1612       C  0.77426697  0.99678229  0.78951825     0.09500
H1613       H  0.70225825  0.55154409  0.76757161     0.14000
H1614       H  0.78892015  0.99437431  0.71663865    -0.00300
H1615       H  0.69249864  0.95188037  0.75621423     0.14300
H1616       H  0.74672483  0.99510599  0.85222459     0.14100
C1617       C  0.64385100  0.97616146  0.21428360    -0.02500
C1618       C  0.67446228  0.99337687  0.20001109     0.07200
C1619       C  0.66558470  0.52380905  0.16389048    -0.02600
C1620       C  0.63560497  0.52401981  0.13718853    -0.02600
C1621       C  0.61087848  0.00060377  0.15062179     0.07300
C1622       C  0.61309947  0.97865107  0.18853782    -0.02800
Br1623     Br  0.57395632  0.95132663  0.20528447    -0.01300
Br1624     Br  0.63935120  0.95473793  0.27325111    -0.01400
Br1625     Br  0.63558693  0.55220950  0.08287405    -0.01400
Br1626     Br  0.69663008  0.56151060  0.15603421    -0.01400
C1627       C  0.87061453  0.98401211  0.19639874    -0.02500
C1628       C  0.86973451  0.99465105  0.14998884     0.07200
C1629       C  0.83270347  0.50625487  0.12601691    -0.02600
C1630       C  0.80578184  0.51355859  0.15552675    -0.02600
C1631       C  0.80879778  0.99668467  0.20565489     0.07300
C1632       C  0.83999326  0.98219104  0.22261365    -0.02800
Br1633     Br  0.84333176  0.96131372  0.28192067    -0.01300
Br1634     Br  0.91359135  0.97484754  0.22636405    -0.01400
Br1635     Br  0.77919590  0.55339760  0.14029143    -0.01400
Br1636     Br  0.82207509  0.51187446  0.06195901    -0.01400
C1637       C  0.52758518  0.81717903  0.16168413    -0.02500
C1638       C  0.99942525  0.80892665  0.19428216     0.07200
C1639       C  0.97349781  0.83349499  0.20192802    -0.02600
C1640       C  0.97262331  0.86503470  0.17736457    -0.02600
C1641       C  0.99791528  0.87315096  0.14525167     0.07300
C1642       C  0.52771914  0.84930653  0.13904755    -0.02800
Br1643     Br  0.56424797  0.85965964  0.09793805    -0.01300
Br1644     Br  0.56201549  0.78361063  0.14681832    -0.01400
Br1645     Br  0.93527754  0.89599415  0.18571705    -0.01400
Br1646     Br  0.93928683  0.82480592  0.24675765    -0.01400
C1647       C  0.47954231  0.68222382  0.15476542    -0.02500
C1648       C  0.98792379  0.68160761  0.20213403     0.07200
C1649       C  0.98721888  0.64903889  0.22413405    -0.02600
C1650       C  0.98356838  0.61804825  0.19873861    -0.02600
C1651       C  0.97761196  0.61923422  0.15106118     0.07300
C1652       C  0.47149849  0.65153186  0.13112606    -0.02800
Br1653     Br  0.44527946  0.65569023  0.07536098    -0.01300
Br1654     Br  0.47978046  0.72514500  0.12213420    -0.01400
Br1655     Br  0.98515504  0.57478908  0.23077786    -0.01400
Br1656     Br  0.98934639  0.64692411  0.28969292    -0.01400
C1657       C  0.64661772  0.86483731  0.92997489    -0.02500
C1658       C  0.66423946  0.84927702  0.96634872     0.07200
C1659       C  0.66143974  0.86281226  0.01059266    -0.02600
C1660       C  0.63779688  0.88898200  0.01911514    -0.02600
C1661       C  0.61587402  0.89992589  0.98399071     0.07300
C1662       C  0.62291220  0.89086056  0.93881487    -0.02800
Br1663     Br  0.60202662  0.91599630  0.88931860    -0.01300
Br1664     Br  0.65513556  0.85065057  0.86849777    -0.01400
Br1665     Br  0.63776198  0.91230548  0.07689554    -0.01400
Br1666     Br  0.68979593  0.84541813  0.05931594    -0.01400
C1667       C  0.88972527  0.85077146  0.95747970    -0.02500
C1668       C  0.88659169  0.87687962  0.99058975     0.07200
C1669       C  0.85744736  0.87797573  0.01828507    -0.02600
C1670       C  0.83139652  0.85388991  0.01201169    -0.02600
C1671       C  0.83354340  0.82976937  0.97675321     0.07300
C1672       C  0.86279603  0.82768632  0.94996919    -0.02800
Br1673     Br  0.86559319  0.79315461  0.90296994    -0.01300
Br1674     Br  0.92984569  0.84661361  0.92100816    -0.01400
Br1675     Br  0.79322557  0.85286799  0.05291419    -0.01400
Br1676     Br  0.85313694  0.91155796  0.06620878    -0.01400
C1677       C  0.85176997  0.61238030  0.03375642    -0.02500
C1678       C  0.87273187  0.60839466  0.99571980     0.07200
C1679       C  0.86990005  0.63175577  0.95922885    -0.02600
C1680       C  0.84219494  0.65435900  0.95690154    -0.02600
C1681       C  0.81945945  0.65636407  0.99343821     0.07300
C1682       C  0.82552300  0.63689292  0.03298369    -0.02800
Br1683     Br  0.80076500  0.64692647  0.08748083    -0.01300
Br1684     Br  0.86308725  0.58871599  0.08939426    -0.01400
Br1685     Br  0.83653925  0.68413955  0.90472115    -0.01400
Br1686     Br  0.90570507  0.63624011  0.91536017    -0.01400
C1687       C  0.60130806  0.63136466  0.94957488    -0.02500
C1688       C  0.59163400  0.62135372  0.99357492     0.07200
C1689       C  0.60483838  0.63859708  0.03181795    -0.02600
C1690       C  0.63082745  0.66299207  0.02642148    -0.02600
C1691       C  0.64223314  0.67122849  0.98256056     0.07300
C1692       C  0.62628182  0.65678305  0.94410543    -0.02800
Br1693     Br  0.63850689  0.67235445  0.88427336    -0.01300
Br1694     Br  0.58009001  0.61068772  0.89684048    -0.01400
Br1695     Br  0.65058723  0.68544405  0.07882739    -0.01400
Br1696     Br  0.58628319  0.62975546  0.09104774    -0.01400
C1697       C  0.82216541  0.96498574  0.83054210    -0.02500
C1698       C  0.80961429  0.99533684  0.80987413     0.07200
C1699       C  0.82071987  0.52218112  0.82840496    -0.02600
C1700       C  0.85262908  0.52240363  0.85055398    -0.02600
C1701       C  0.87471276  0.49407638  0.84806367     0.07300
C1702       C  0.85545980  0.96365928  0.84873882    -0.02800
Br1703     Br  0.87344990  0.92112131  0.87281955    -0.01300
Br1704     Br  0.79267189  0.92697268  0.84219895    -0.01400
Br1705     Br  0.86671068  0.56216262  0.88413890    -0.01400
Br1706     Br  0.79271878  0.56275261  0.83129283    -0.01400
C1707       C  0.64515173  0.52029629  0.87791063    -0.02500
C1708       C  0.61495554  0.50310171  0.86308828     0.07200
C1709       C  0.61453008  0.99918421  0.81487651    -0.02600
C1710       C  0.64558024  0.99905576  0.79069623    -0.02600
C1711       C  0.67735429  0.00674396  0.81298900     0.07300
C1712       C  0.67597561  0.51753523  0.85346078    -0.02800
Br1713     Br  0.71400303  0.54488716  0.87463226    -0.01300
Br1714     Br  0.64506818  0.54957184  0.93118696    -0.01400
Br1715     Br  0.64220488  0.99424177  0.72515115    -0.01400
Br1716     Br  0.57363819  0.98325857  0.78422104    -0.01400
C1717       C  0.48429180  0.62028416  0.81083055    -0.02500
C1718       C  0.98741356  0.62141458  0.85865563     0.07200
C1719       C  0.98958019  0.65510456  0.87873423    -0.02600
C1720       C  0.98905968  0.68502244  0.85154085    -0.02600
C1721       C  0.99204582  0.68283793  0.80429922     0.07300
C1722       C  0.48904855  0.65024152  0.78402208    -0.02800
Br1723     Br  0.48836645  0.64561669  0.71912155    -0.01300
Br1724     Br  0.47116543  0.57798257  0.78091307    -0.01400
Br1725     Br  0.98304861  0.72928055  0.87963249    -0.01400
Br1726     Br  0.99598020  0.66326663  0.94342425    -0.01400
C1727       C  0.01969610  0.84713572  0.87202436    -0.02500
C1728       C  0.99889069  0.87517722  0.85708034     0.07200
C1729       C  0.47778436  0.86909991  0.81994487    -0.02600
C1730       C  0.47579167  0.83616425  0.79888163    -0.02600
C1731       C  0.99828298  0.80938198  0.81130671     0.07300
C1732       C  0.02060199  0.81567432  0.84817608    -0.02800
Br1733     Br  0.05302701  0.78068595  0.86689701    -0.01300
Br1734     Br  0.04742474  0.84987246  0.92633496    -0.01400
Br1735     Br  0.43924827  0.82730289  0.75673159    -0.01400
Br1736     Br  0.44860224  0.90576158  0.79878599    -0.01400
C1737       C  0.90464858  0.78212645  0.63803279    -0.02500
C1738       C  0.87652983  0.76177562  0.65112136     0.07200
C1739       C  0.87993682  0.74035510  0.68939773    -0.02600
C1740       C  0.91227084  0.73496877  0.70958493    -0.02600
C1741       C  0.94113365  0.75403289  0.69513595     0.07300
C1742       C  0.93642830  0.77896266  0.66040121    -0.02800
Br1743     Br  0.97229051  0.81105202  0.64461290    -0.01300
Br1744     Br  0.89946255  0.81580496  0.59028638    -0.01400
Br1745     Br  0.91604659  0.69828728  0.75329372    -0.01400
Br1746     Br  0.84050296  0.71760912  0.71419684    -0.01400
C1747       C  0.62859340  0.77221570  0.67786839    -0.02500
C1748       C  0.63854904  0.74221582  0.65521423     0.07200
C1749       C  0.61475431  0.71514725  0.65117306    -0.02600
C1750       C  0.58235885  0.71716753  0.67142256    -0.02600
C1751       C  0.57243787  0.74672827  0.69629588     0.07300
C1752       C  0.59489381  0.77575848  0.69389154    -0.02800
Br1753     Br  0.57771923  0.82241238  0.69438244    -0.01300
Br1754     Br  0.65976922  0.81067318  0.68066067    -0.01400
Br1755     Br  0.55022891  0.68129683  0.65714342    -0.01400
Br1756     Br  0.62557122  0.67570256  0.61481318    -0.01400
C1757       C  0.72895892  0.62140936  0.68075275    -0.02500
C1758       C  0.76085583  0.63257365  0.66620053     0.07200
C1759       C  0.78910488  0.61113866  0.67562498    -0.02600
C1760       C  0.78480464  0.57839467  0.69710759    -0.02600
C1761       C  0.75148891  0.56480435  0.70501065     0.07300
C1762       C  0.72360969  0.58690929  0.69367032    -0.02800
Br1763     Br  0.67743927  0.56978746  0.68820121    -0.01300
Br1764     Br  0.69311416  0.65462776  0.68669234    -0.01400
Br1765     Br  0.82524659  0.55417365  0.71590601    -0.01400
Br1766     Br  0.83395143  0.62875425  0.66333866    -0.01400
C1767       C  0.75094282  0.93929035  0.65434287    -0.02500
C1768       C  0.74581667  0.93595412  0.70129020     0.07200
C1769       C  0.74324386  0.90212177  0.71946174    -0.02600
C1770       C  0.74883329  0.87264167  0.69218153    -0.02600
C1771       C  0.75278950  0.87556982  0.64434443     0.07300
C1772       C  0.75393765  0.90990637  0.62599268    -0.02800
Br1773     Br  0.75987869  0.91940517  0.56193575    -0.01300
Br1774     Br  0.74992926  0.98484906  0.62779230    -0.01400
Br1775     Br  0.75209833  0.82867623  0.72306259    -0.01400
Br1776     Br  0.72946231  0.89443024  0.78140620    -0.01400
C1777       C  0.89060169  0.58006776  0.51369940    -0.02500
C1778       C  0.91663337  0.58528707  0.48225848     0.07200
C1779       C  0.91714404  0.61449709  0.45439459    -0.02600
C1780       C  0.89218779  0.63962823  0.45968312    -0.02600
C1781       C  0.86659248  0.63523953  0.49242795     0.07300
C1782       C  0.86460044  0.60419707  0.51727194    -0.02800
Br1783     Br  0.82633456  0.59306372  0.55525349    -0.01300
Br1784     Br  0.89152562  0.54044080  0.55342858    -0.01400
Br1785     Br  0.89172868  0.67786015  0.41863569    -0.01400
Br1786     Br  0.95217650  0.62003849  0.40937341    -0.01400
C1787       C  0.61363679  0.58807399  0.55355873    -0.02500
C1788       C  0.58946353  0.58379200  0.51869929     0.07200
C1789       C  0.59023664  0.60534216  0.48015994    -0.02600
C1790       C  0.61464902  0.63165870  0.47766755    -0.02600
C1791       C  0.64152758  0.63265623  0.50996240     0.07300
C1792       C  0.64185995  0.60915456  0.54620706    -0.02800
Br1793     Br  0.68110006  0.60511600  0.58502106    -0.01300
Br1794     Br  0.60666449  0.56705650  0.61193794    -0.01400
Br1795     Br  0.61177006  0.66473783  0.42891069    -0.01400
Br1796     Br  0.55830236  0.59841519  0.43053363    -0.01400
C1797       C  0.61339308  0.90215691  0.46694264    -0.02500
C1798       C  0.58448788  0.90069039  0.49420379     0.07200
C1799       C  0.58207104  0.87515581  0.52809303    -0.02600
C1800       C  0.60843707  0.85097772  0.53281238    -0.02600
C1801       C  0.63964678  0.85689651  0.51042670     0.07300
C1802       C  0.64278482  0.88590080  0.48228687    -0.02800
Br1803     Br  0.68536292  0.91027467  0.47626528    -0.01300
Br1804     Br  0.61389877  0.92961870  0.41233911    -0.01400
Br1805     Br  0.60196385  0.81185756  0.57203581    -0.01400
Br1806     Br  0.54324455  0.87314383  0.56769268    -0.01400
C1807       C  0.87438854  0.86693819  0.43445166    -0.02500
C1808       C  0.86107493  0.86493828  0.47863549     0.07200
C1809       C  0.87155641  0.88862162  0.51194650    -0.02600
C1810       C  0.89814585  0.91155431  0.50270707    -0.02600
C1811       C  0.91238387  0.91269511  0.45896622     0.07300
C1812       C  0.90027067  0.89065722  0.42465533    -0.02800
Br1813     Br  0.91999954  0.89231073  0.36504769    -0.01300
Br1814     Br  0.85534077  0.83912905  0.38654052    -0.01400
Br1815     Br  0.91676493  0.93965162  0.55103698    -0.01400
Br1816     Br  0.84888488  0.89042192  0.56961571    -0.01400
C1817       C  0.60841826  0.76678299  0.36997935    -0.02500
C1818       C  0.63467855  0.74293804  0.36134533     0.07200
C1819       C  0.63172425  0.72200892  0.32246219    -0.02600
C1820       C  0.60225742  0.72379034  0.29404525    -0.02600
C1821       C  0.57328989  0.74385972  0.30688890     0.07300
C1822       C  0.57924407  0.76844795  0.34173531    -0.02800
Br1823     Br  0.55224548  0.80960467  0.34550008    -0.01300
Br1824     Br  0.61265911  0.79944055  0.41925443    -0.01400
Br1825     Br  0.60754651  0.70651697  0.23296474    -0.01400
Br1826     Br  0.66786325  0.69023192  0.30817243    -0.01400
C1827       C  0.90697638  0.76519391  0.37895342    -0.02500
C1828       C  0.87628271  0.74967135  0.36198418     0.07200
C1829       C  0.87770738  0.73478336  0.31807256    -0.02600
C1830       C  0.90925482  0.73237573  0.29454177    -0.02600
C1831       C  0.93905338  0.74985874  0.31054335     0.07300
C1832       C  0.93564924  0.76887317  0.35109681    -0.02800
Br1833     Br  0.96719324  0.80486210  0.36674196    -0.01300
Br1834     Br  0.91346100  0.78057627  0.44135472    -0.01400
Br1835     Br  0.91073220  0.70217453  0.24290563    -0.01400
Br1836     Br  0.83723314  0.71531760  0.29049068    -0.01400
C1837       C  0.76719635  0.86332087  0.31294412    -0.02500
C1838       C  0.74463768  0.85715992  0.34890519     0.07200
C1839       C  0.72004618  0.88207403  0.35792756    -0.02600
C1840       C  0.72400521  0.91597719  0.34230830    -0.02600
C1841       C  0.74763258  0.92372346  0.30795634     0.07300
C1842       C  0.76685305  0.89579227  0.29043530    -0.02800
Br1843     Br  0.78873412  0.90011410  0.23270991    -0.01300
Br1844     Br  0.79548328  0.82645762  0.29170543    -0.01400
Br1845     Br  0.69660695  0.95152023  0.36803946    -0.01400
Br1846     Br  0.67692814  0.86601185  0.37975035    -0.00400
C1847       C  0.71869171  0.56626233  0.34908762    -0.02500
C1848       C  0.74499985  0.55484327  0.31991200     0.07200
C1849       C  0.77590923  0.57404815  0.31997855    -0.02600
C1850       C  0.77975466  0.60409787  0.34716690    -0.02600
C1851       C  0.75266572  0.61619623  0.37370326     0.07300
C1852       C  0.72283257  0.59612815  0.37579499    -0.02800
Br1853     Br  0.68688149  0.60966312  0.41564824    -0.01300
Br1854     Br  0.67585027  0.54189167  0.35337749    -0.01400
Br1855     Br  0.82271055  0.62806695  0.34995652    -0.01400
Br1856     Br  0.81253401  0.56176253  0.28051607    -0.01400
loop_ 
_geom_bond_atom_site_label_1 
_geom_bond_atom_site_label_2 
_geom_bond_distance 
_geom_bond_site_symmetry_2 
_ccdc_geom_bond_type 
O1           C12   1.305       .  A
O1          Eu37   2.536       .  S
O2           C13   1.303       .  A
O2          Eu36   2.523       .  S
O3           C14   1.279       .  A
O3           Eu9   2.409       .  S
O4           C15   1.293       .  A
O4           Eu9   2.479       .  S
O5           C15   1.283       .  A
O5          Eu39   2.424       .  S
O6           C14   1.289       .  A
O6          Eu38   2.453       .  S
O7           C13   1.296       .  A
O7           Eu9   2.488       .  S
O8           C12   1.288       .  A
O8           Eu9   2.436       .  S
Eu9          O19   2.341       .  S
Eu9          O11   2.360       .  S
Eu9          O10   2.337       .  S
Eu9          O17   2.363       .  S
O10         Eu39   2.350       .  S
O10         Eu36   2.385       .  S
O11         Eu37   2.357       .  S
O11         Eu38   2.348       .  S
C12         C459   1.495       .  S
C13         C366   1.509       .  S
C14         C389   1.473       .  S
C15         C399   1.484       .  S
H16          O17   0.965       .  S
O17         Eu38   2.359       .  S
O17         Eu36   2.373       .  S
H18          O19   0.959       .  S
O19         Eu37   2.384       .  S
O19         Eu39   2.343       .  S
O20          C43   1.305       .  A
O20         Eu36   2.539       .  S
O21          C44   1.298       .  A
O21         Eu37   2.509       .  S
O22          C45   1.283       .  A
O22         Eu38   2.418       .  S
O23          C46   1.287       .  A
O23         Eu39   2.437       .  S
O24          C47   1.287       .  A
O24         Eu39   2.436       .  S
O25          C48   1.282       .  A
O25         Eu38   2.417       .  S
O26          C49   1.278       .  A
O26         Eu40   2.396       .  S
O27          C50   1.281       .  A
O27         Eu40   2.418       .  S
O28          C49   1.294       .  A
O28         Eu38   2.489       .  S
O29          C50   1.283       .  A
O29         Eu39   2.431       .  S
O30          C45   1.306       .  A
O30         Eu36   2.543       .  S
O31          C48   1.306       .  A
O31         Eu37   2.549       .  S
O32          C47   1.301       .  A
O32         Eu37   2.513       .  S
O33          C46   1.306       .  A
O33         Eu36   2.540       .  S
O34          C43   1.285       .  A
O34         Eu40   2.446       .  S
O35          C44   1.297       .  A
O35         Eu40   2.481       .  S
Eu36         O54   2.373       .  S
Eu36         O42   2.372       .  S
Eu37         O41   2.393       .  S
Eu37         O52   2.366       .  S
Eu38         O52   2.338       .  S
Eu38         O42   2.343       .  S
Eu39         O41   2.357       .  S
Eu39         O54   2.342       .  S
Eu40         O41   2.343       .  S
Eu40         O52   2.346       .  S
Eu40         O54   2.343       .  S
Eu40         O42   2.358       .  S
C43         C379   1.534       .  S
C44         C446   1.505       .  S
C45         C346   1.508       .  S
C46         C356   1.499       .  S
C47         C426   1.499       .  S
C48         C436   1.512       .  S
C49         C416   1.461       .  S
C50         C409   1.475       .  S
H51          O52   0.973       .  S
H53          O54   0.966       .  S
N55          C60   1.346   1_565  A
N55         C523   1.346       .  A
N55          H87   1.035       .  S
N56          C64   1.343       .  A
N56         C991   1.346   1_455  A
N57          C62   1.358   1_565  A
N57         C525   1.348       .  A
N57          H88   1.032       .  S
N58          C66   1.345       .  A
N58         C993   1.341   1_455  A
C59         N519   1.350       .  A
C59          C67   1.382       .  A
C59          C75   1.403       .  A
C60          C76   1.411       .  A
C60          C68   1.391       .  A
C61         N521   1.347       .  A
C61          C69   1.394       .  A
C61          C78   1.427       .  A
C62          C77   1.419       .  A
C62          C70   1.383       .  A
C63         N984   1.345       .  A
C63          C75   1.400       .  A
C63          C71   1.382       .  A
C64          C78   1.414       .  A
C64          C72   1.392       .  A
C65         N986   1.344       .  A
C65          C73   1.388       .  A
C65          C76   1.408       .  A
C66          C74   1.384       .  A
C66          C77   1.401       .  A
C67         C532   1.373       .  A
C67          H79   1.082       .  S
C68         C531   1.375   1_545  A
C68          H80   1.083       .  S
C69         C534   1.367       .  A
C69          H81   1.080       .  S
C70         C533   1.363   1_545  A
C70          H82   1.080       .  S
C71        C1000   1.371       .  A
C71          H83   1.082       .  S
C72         C999   1.373   1_455  A
C72          H84   1.082       .  S
C73        C1002   1.374       .  A
C73          H85   1.082       .  S
C74        C1001   1.374   1_455  A
C74          H86   1.083       .  S
C75         C419   1.478       .  S
C76         C386   1.469       .  S
C77         C396   1.498       .  S
C78         C406   1.474       .  S
O89         C100   1.314       .  A
O89        Eu589   2.587       .  S
O90         C101   1.309       .  A
O90        Eu124   2.558       .  S
O91         C102   1.294   1_556  A
O91       Eu1025   2.490   1_456  S
O92         C103   1.285   1_554  A
O92         Eu97   2.431       .  S
O93         C103   1.286       .  A
O93        Eu127   2.427       .  S
O94         C102   1.282       .  A
O94        Eu126   2.425       .  S
O95         C101   1.283       .  A
O95         Eu97   2.413       .  S
O96         C100   1.278       .  A
O96         Eu97   2.399   1_556  S
Eu97       O1019   2.483   1_554  S
Eu97        O107   2.354   1_554  S
Eu97         O98   2.353       .  S
Eu97       O1027   2.334   1_554  S
Eu97       O1033   2.336       .  S
O98        Eu127   2.358   1_554  S
O98        Eu124   2.368       .  S
O99        Eu126   2.346   1_556  S
O99       Eu1025   2.341   1_456  S
O99       Eu1517   2.359   1_455  S
C100        C336   1.530       .  S
C101        C249   1.503       .  S
C102        C269   1.476   1_554  S
C103        C276   1.455   1_556  S
H104        O105   0.963       .  S
O105       Eu126   2.368       .  S
O105      Eu1025   2.343   1_455  S
O105      Eu1052   2.386   1_455  S
H106        O107   0.968       .  S
O107       Eu127   2.366       .  S
O107       Eu589   2.374       .  S
O108        C131   1.308       .  A
O108       Eu588   2.560   1_545  S
O109        C132   1.306       .  A
O109       Eu125   2.546   1_545  S
O110        C133   1.279       .  A
O110       Eu126   2.392       .  S
O111        C134   1.290       .  A
O111       Eu127   2.467   1_554  S
O112        C599   1.292       .  A
O112       Eu127   2.461       .  S
O113        C136   1.286       .  A
O113       Eu590   2.445   1_556  S
O114        C137   1.281       .  A
O114      Eu1056   2.420   1_455  S
O115        C138   1.284       .  A
O115       Eu128   2.432       .  S
O116        C137   1.287       .  A
O116       Eu590   2.451       .  S
O117        C138   1.287       .  A
O117       Eu591   2.450   1_545  S
O118        C133   1.304       .  A
O118      Eu1052   2.524   1_455  S
O119        C136   1.303       .  A
O119      Eu1053   2.531   1_445  S
O120        C135   1.298       .  A
O120       Eu125   2.494       .  S
O121        C134   1.307       .  A
O121       Eu124   2.555       .  S
O122        C131   1.278       .  A
O122       Eu128   2.408       .  S
O123        C132   1.286       .  A
O123       Eu128   2.440   1_556  S
Eu124       O572   2.541       .  S
Eu124      O1046   2.540       .  S
Eu124      O1033   2.384       .  S
Eu124       O606   2.379       .  S
Eu124      O1522   2.389       .  S
Eu125       O553   2.575       .  S
Eu125      O1047   2.536   1_565  S
Eu125       O129   2.389   1_565  S
Eu125      O1491   2.364       .  S
Eu125       O571   2.380       .  S
Eu125      O1068   2.377   1_565  S
Eu126       O577   2.435   1_554  S
Eu126       O580   2.473   1_554  S
Eu126       O604   2.325   1_554  S
Eu126       O594   2.357       .  S
Eu127       O581   2.471       .  S
Eu127       O593   2.340       .  S
Eu127       O606   2.349   1_556  S
Eu128      O1042   2.416       .  S
Eu128       O129   2.348   1_554  S
Eu128       O142   2.343       .  S
Eu128      O1068   2.348   1_554  S
Eu128      O1058   2.349       .  S
O129       Eu591   2.359   1_546  S
O130      Eu1516   2.385   1_445  S
O130       Eu590   2.341       .  S
O130      Eu1056   2.348   1_455  S
C131        C259   1.529       .  S
C132        C326   1.527       .  S
C133        C229   1.489       .  S
C134        C236   1.544       .  S
C135        O576   1.294       .  A
C135        C309   1.489       .  S
C136        C316   1.522       .  S
C137        C296   1.457       .  S
C138        C286   1.462       .  S
H139        O140   0.966       .  S
O140      Eu1053   2.374   1_445  S
O140       Eu590   2.334   1_556  S
O140      Eu1056   2.349   1_456  S
H141        O142   0.967       .  S
O142       Eu588   2.363   1_545  S
O142       Eu591   2.340   1_545  S
N143        C148   1.348       .  A
N143        C147   1.351       .  A
N143        H175   1.036       .  S
N144        C151   1.352       .  A
N144        C152   1.349       .  A
N145        C150   1.356       .  A
N145        C149   1.348       .  A
N145        H176   1.038   1_554  S
N146        C153   1.343       .  A
N146        C154   1.348       .  A
C147        C155   1.386       .  A
C147        C163   1.409       .  A
C148        C164   1.412       .  A
C148        C156   1.389       .  A
C149        C157   1.386       .  A
C149        C166   1.408       .  A
C150        C165   1.413   1_554  A
C150        C158   1.386       .  A
C151        C163   1.412       .  A
C151        C159   1.386       .  A
C152        C166   1.411       .  A
C152        C160   1.387       .  A
C153        C161   1.389       .  A
C153        C164   1.408   1_556  A
C154        C162   1.384       .  A
C154        C165   1.404       .  A
C155        C156   1.374       .  A
C155        H167   1.082       .  S
C156        H168   1.083       .  S
C157        C158   1.373       .  A
C157        H169   1.082       .  S
C158        H170   1.082       .  S
C159        C160   1.372       .  A
C159        H171   1.083       .  S
C160        H172   1.083       .  S
C161        C162   1.371       .  A
C161        H173   1.083       .  S
C162        H174   1.082       .  S
C163        C289   1.483       .  S
C164        C279   1.467       .  S
C165        C266   1.487       .  S
C166        C299   1.475       .  S
C177        C178   1.532       .  S
C177        C181   1.526       .  S
C177       C1111   1.560   1_455  S
C177        C429   1.568       .  S
C178        H185   1.084       .  S
C178       C1107   1.360   1_455  D
C179        C180   1.562       .  S
C179       C1106   1.359       .  D
C179        C256   1.511       .  S
C180        C184   1.546       .  S
C180        C182   1.558       .  S
C180        H186   1.107       .  S
C181        H187   1.087       .  S
C181       C1110   1.366       .  D
C182       C1109   1.365       .  D
C182        C246   1.514       .  S
C183       C1105   1.557       .  S
C183        H188   1.085       .  S
C183        C184   1.388       .  D
C184        C439   1.514       .  S
C189        C190   1.526       .  S
C189        C195   1.558       .  S
C189        C657   1.520       .  S
C189        C226   1.557       .  S
C190        H197   1.085       .  S
C190        C191   1.358       .  D
C191        C192   1.568       .  S
C191        C449   1.510       .  S
C192        C196   1.574       .  S
C192        C658   1.564       .  S
C192        H198   1.092       .  S
C193        C653   1.518   1_545  S
C193        H199   1.086       .  S
C193        C194   1.357       .  D
C194        C656   1.577   1_545  S
C194        C456   1.533       .  S
C195        H200   1.083       .  S
C195        C196   1.397       .  D
C196        C239   1.562       .  S
C201        C202   1.536       .  S
C201        C205   1.545       .  S
C201       C1135   1.543       .  S
C201        C359   1.573       .  S
C202        H209   1.083       .  S
C202       C1131   1.357       .  D
C203        C204   1.560       .  S
C203       C1130   1.358       .  D
C203        C339   1.517       .  S
C204        C208   1.555       .  S
C204        C206   1.577       .  S
C204        H210   1.105       .  S
C205        H211   1.085       .  S
C205       C1134   1.377       .  D
C206       C1133   1.377       .  D
C206        C329   1.531       .  S
C207       C1129   1.544       .  S
C207        H212   1.084       .  S
C207        C208   1.377       .  D
C208        C349   1.529       .  S
C213        C219   1.557       .  S
C213        C217   1.536       .  S
C213        C678   1.518       .  S
C213        C319   1.576       .  S
C214        C677   1.520       .  S
C214        H221   1.081       .  S
C214        C215   1.371       .  D
C215        C680   1.584   1_545  S
C215        C369   1.556       .  S
C216        C220   1.551       .  S
C216        C218   1.567       .  S
C216        C679   1.578       .  S
C216        H222   1.105       .  S
C217        H223   1.083       .  S
C217        C218   1.361       .  D
C218        C376   1.526       .  S
C219        H224   1.084       .  S
C219        C220   1.384       .  D
C220        C306   1.510       .  S
C225        C226   1.433       .  A
C225        C230   1.413       .  A
C225       Br232   1.930       .  S
C226        C691   1.413       .  A
C227        C228   1.411       .  A
C227        C690   1.421   1_545  A
C227       Br234   1.924       .  S
C228        C693   1.418       .  A
C228       Br233   1.936       .  S
C229        C230   1.406       .  A
C229        C692   1.421       .  A
C230       Br231   1.937       .  S
C235        C236   1.427       .  A
C235        C240   1.438       .  A
C235       Br242   1.935       .  S
C236        C701   1.427       .  A
C237        C238   1.404       .  A
C237        C700   1.423   1_545  A
C237       Br244   1.930       .  S
C238        C703   1.408   1_545  A
C238       Br243   1.921       .  S
C239        C240   1.439       .  A
C239        C702   1.417       .  A
C240       Br241   1.930       .  S
C245        C250   1.412       .  A
C245       C1174   1.416   1_455  A
C245       Br252   1.936       .  S
C246        C247   1.422       .  A
C246       C1173   1.415       .  A
C247        C248   1.422       .  A
C247       Br254   1.923       .  S
C248        C249   1.411       .  A
C248       Br253   1.926       .  S
C249       C1178   1.418       .  A
C250       C1177   1.415   1_455  A
C250       Br251   1.927       .  S
C255        C260   1.411       .  A
C255       C1184   1.401       .  A
C255       Br262   1.934       .  S
C256        C257   1.424       .  A
C256       C1183   1.402       .  A
C257        C258   1.422       .  A
C257       Br264   1.935       .  S
C258        C259   1.418       .  A
C258       Br263   1.931       .  S
C259       C1188   1.437       .  A
C260       C1187   1.438       .  A
C260       Br261   1.942       .  S
C265        C266   1.408       .  A
C265        C270   1.407       .  A
C265       Br272   1.927       .  S
C266        C267   1.411   1_556  A
C267        C268   1.407       .  A
C267       Br274   1.930       .  S
C268        C269   1.410   1_554  A
C268       Br273   1.931       .  S
C269        C270   1.408       .  A
C270       Br271   1.930       .  S
C275        C276   1.409   1_556  A
C275        C280   1.401       .  A
C275       Br282   1.931       .  S
C276        C277   1.409       .  A
C277        C278   1.395       .  A
C277       Br284   1.928       .  S
C278        C279   1.405       .  A
C278       Br283   1.934       .  S
C279        C280   1.406   1_554  A
C280       Br281   1.930       .  S
C285        C286   1.411       .  A
C285        C290   1.407       .  A
C285       Br292   1.931       .  S
C286        C287   1.400   1_554  A
C287        C288   1.400       .  A
C287       Br294   1.926       .  S
C288        C289   1.412   1_556  A
C288       Br293   1.931       .  S
C289        C290   1.410       .  A
C290       Br291   1.929       .  S
C295        C296   1.404   1_556  A
C295        C300   1.401       .  A
C295       Br302   1.933       .  S
C296        C297   1.407       .  A
C297        C298   1.402       .  A
C297       Br304   1.930       .  S
C298        C299   1.407       .  A
C298       Br303   1.928       .  S
C299        C300   1.410   1_554  A
C300       Br301   1.930       .  S
C305        C306   1.418       .  A
C305        C310   1.422       .  A
C305       Br312   1.920       .  S
C306        C771   1.411       .  A
C307        C308   1.418       .  A
C307        C770   1.418   1_545  A
C307       Br314   1.926       .  S
C308        C309   1.409   1_545  A
C308       Br313   1.929       .  S
C309        C774   1.405       .  A
C310        C773   1.411       .  A
C310       Br311   1.922       .  S
C315        C316   1.428       .  A
C315        C320   1.417       .  A
C315       Br322   1.934       .  S
C316        C781   1.417   1_545  A
C317        C318   1.419       .  A
C317        C780   1.411       .  A
C317       Br324   1.934       .  S
C318        C319   1.437       .  A
C318       Br323   1.939       .  S
C319        C784   1.424       .  A
C320        C783   1.417       .  A
C320       Br321   1.940       .  S
C325        C330   1.418       .  A
C325       C1254   1.420       .  A
C325       Br332   1.932   1_655  S
C326        C327   1.432       .  A
C326       C1253   1.417       .  A
C327        C328   1.424       .  A
C327       Br334   1.935       .  S
C328        C329   1.413       .  A
C328       Br333   1.925       .  S
C329       C1258   1.419       .  A
C330       C1257   1.418       .  A
C330       Br331   1.923       .  S
C335        C336   1.440       .  A
C335        C340   1.420       .  A
C335       Br342   1.940       .  S
C336       C1265   1.416       .  A
C337        C338   1.420       .  A
C337       C1264   1.416   1_655  A
C337       Br344   1.928       .  S
C338       C1267   1.414   1_655  A
C338       Br343   1.915       .  S
C339        C340   1.408       .  A
C339       C1266   1.416       .  A
C340       Br341   1.937       .  S
C345        C346   1.422       .  A
C345        C350   1.417       .  A
C345       Br352   1.940       .  S
C346        C347   1.409       .  A
C347        C348   1.420       .  A
C347       Br354   1.934       .  S
C348        C349   1.429       .  A
C348       Br353   1.925       .  S
C349        C350   1.426       .  A
C350       Br351   1.942       .  S
C355        C356   1.405       .  A
C355        C360   1.419       .  A
C355       Br362   1.931       .  S
C356        C357   1.411       .  A
C357        C358   1.417       .  A
C357       Br364   1.929       .  S
C358        C359   1.426       .  A
C358       Br363   1.922       .  S
C359        C360   1.435       .  A
C360       Br361   1.939       .  S
C365        C366   1.395       .  A
C365        C370   1.407       .  A
C365       Br372   1.924       .  S
C366        C367   1.413       .  A
C367        C368   1.434       .  A
C367       Br374   1.928       .  S
C368        C369   1.437       .  A
C368       Br373   1.926       .  S
C369        C370   1.435       .  A
C370       Br371   1.937       .  S
C375        C376   1.407       .  A
C375        C380   1.421       .  A
C375       Br382   1.934       .  S
C376        C377   1.427       .  A
C377        C378   1.424       .  A
C377       Br384   1.940       .  S
C378        C379   1.424       .  A
C378       Br383   1.937       .  S
C379        C380   1.438       .  A
C380       Br381   1.941       .  S
C385        C386   1.402       .  A
C385        C390   1.394       .  A
C385       Br392   1.935       .  S
C386        C387   1.405       .  A
C387        C388   1.403       .  A
C387       Br394   1.930       .  S
C388        C389   1.414       .  A
C388       Br393   1.929       .  S
C389        C390   1.419       .  A
C390       Br391   1.937       .  S
C395        C396   1.410       .  A
C395        C400   1.406       .  A
C395       Br402   1.933       .  S
C396        C397   1.418       .  A
C397        C398   1.408       .  A
C397       Br404   1.936       .  S
C398        C399   1.415       .  A
C398       Br403   1.935       .  S
C399        C400   1.410       .  A
C400       Br401   1.925       .  S
C405        C406   1.395       .  A
C405        C410   1.389       .  A
C405       Br412   1.924       .  S
C406        C407   1.408       .  A
C407        C408   1.404       .  A
C407       Br414   1.932       .  S
C408        C409   1.421       .  A
C408       Br413   1.931       .  S
C409        C410   1.413       .  A
C410       Br411   1.934       .  S
C415        C416   1.406       .  A
C415        C420   1.401       .  A
C415       Br422   1.929       .  S
C416        C417   1.403       .  A
C417        C418   1.404       .  A
C417       Br424   1.929       .  S
C418        C419   1.413       .  A
C418       Br423   1.932       .  S
C419        C420   1.406       .  A
C420       Br421   1.926       .  S
C425        C426   1.413       .  A
C425        C430   1.412       .  A
C425       Br432   1.934       .  S
C426        C427   1.406       .  A
C427        C428   1.417       .  A
C427       Br434   1.932       .  S
C428        C429   1.437       .  A
C428       Br433   1.936       .  S
C429        C430   1.422       .  A
C430       Br431   1.920       .  S
C435        C436   1.425       .  A
C435        C440   1.403       .  A
C435       Br442   1.927       .  S
C436        C437   1.415       .  A
C437        C438   1.423       .  A
C437       Br444   1.928       .  S
C438        C439   1.423       .  A
C438       Br443   1.924       .  S
C439        C440   1.406       .  A
C440       Br441   1.926       .  S
C445        C446   1.418       .  A
C445        C450   1.430       .  A
C445       Br452   1.922       .  S
C446        C447   1.398       .  A
C447        C448   1.403       .  A
C447       Br454   1.924       .  S
C448        C449   1.407       .  A
C448       Br453   1.901       .  S
C449        C450   1.419       .  A
C450       Br451   1.924       .  S
C455        C456   1.431       .  A
C455        C460   1.416       .  A
C455       Br462   1.936       .  S
C456        C457   1.425       .  A
C457        C458   1.422       .  A
C457       Br464   1.918       .  S
C458        C459   1.407       .  A
C458       Br463   1.929       .  S
C459        C460   1.406       .  A
C460       Br461   1.930       .  S
O465        C476   1.308       .  A
O465       Eu501   2.552       .  S
O466        C477   1.305       .  A
O466       Eu500   2.541       .  S
O467        C478   1.280       .  A
O467       Eu473   2.406       .  S
O468        C479   1.291       .  A
O468       Eu473   2.469       .  S
O469        C479   1.282       .  A
O469       Eu503   2.422       .  S
O470        C478   1.288       .  A
O470       Eu502   2.444       .  S
O471        C477   1.291       .  A
O471       Eu473   2.466       .  S
O472        C476   1.287       .  A
O472       Eu473   2.428       .  S
Eu473       O483   2.340       .  S
Eu473       O475   2.355       .  S
Eu473       O474   2.335       .  S
Eu473       O481   2.361       .  S
O474       Eu503   2.352       .  S
O474       Eu500   2.378       .  S
O475       Eu501   2.356       .  S
O475       Eu502   2.350       .  S
C476        C923   1.500       .  S
C477        C830   1.508       .  S
C478        C853   1.467       .  S
C479        C863   1.478       .  S
H480        O481   0.965       .  S
O481       Eu502   2.365       .  S
O481       Eu500   2.369       .  S
H482        O483   0.958       .  S
O483       Eu501   2.372       .  S
O483       Eu503   2.351       .  S
O484        C507   1.303       .  A
O484       Eu500   2.531       .  S
O485        C508   1.300       .  A
O485       Eu501   2.512       .  S
O486        C509   1.287       .  A
O486       Eu502   2.430       .  S
O487        C510   1.287       .  A
O487       Eu503   2.438       .  S
O488        C511   1.287       .  A
O488       Eu503   2.431       .  S
O489        C512   1.282       .  A
O489       Eu502   2.423       .  S
O490        C513   1.282       .  A
O490       Eu504   2.420       .  S
O491        C514   1.282       .  A
O491       Eu504   2.416       .  S
O492        C513   1.293       .  A
O492       Eu502   2.487       .  S
O493        C514   1.286       .  A
O493       Eu503   2.441       .  S
O494        C509   1.301       .  A
O494       Eu500   2.516       .  S
O495        C512   1.310       .  A
O495       Eu501   2.572       .  S
O496        C511   1.303       .  A
O496       Eu501   2.525       .  S
O497        C510   1.303       .  A
O497       Eu500   2.527       .  S
O498        C507   1.285       .  A
O498       Eu504   2.448       .  S
O499        C508   1.293       .  A
O499       Eu504   2.461       .  S
Eu500       O518   2.366       .  S
Eu500       O506   2.386       .  S
Eu501       O505   2.397       .  S
Eu501       O516   2.359       .  S
Eu502       O516   2.334       .  S
Eu502       O506   2.344       .  S
Eu503       O505   2.352       .  S
Eu503       O518   2.342       .  S
Eu504       O505   2.350       .  S
Eu504       O516   2.343       .  S
Eu504       O518   2.351       .  S
Eu504       O506   2.354       .  S
C507        C843   1.536       .  S
C508        C910   1.502       .  S
C509        C810   1.498       .  S
C510        C820   1.498       .  S
C511        C890   1.501       .  S
C512        C900   1.534       .  S
C513        C880   1.469       .  S
C514        C873   1.469       .  S
H515        O516   0.956       .  S
H517        O518   0.966       .  S
N519        C524   1.349       .  A
N519        H551   1.039       .  S
N520       C1455   1.351   1_455  A
N520        C528   1.347       .  A
N521        C526   1.354       .  A
N521        H552   1.029       .  S
N522       C1457   1.338   1_455  A
N522        C530   1.341       .  A
C523        C531   1.383       .  A
C523        C539   1.401       .  A
C524        C540   1.412       .  A
C524        C532   1.390       .  A
C525        C533   1.392       .  A
C525        C542   1.425       .  A
C526        C541   1.415       .  A
C526        C534   1.383       .  A
C527       N1448   1.350       .  A
C527        C539   1.404       .  A
C527        C535   1.383       .  A
C528        C542   1.414       .  A
C528        C536   1.390       .  A
C529       N1450   1.340       .  A
C529        C537   1.389       .  A
C529        C540   1.404       .  A
C530        C538   1.385       .  A
C530        C541   1.400       .  A
C531        H543   1.083       .  S
C532        H544   1.082       .  S
C533        H545   1.077       .  S
C534        H546   1.080       .  S
C535       C1464   1.367       .  A
C535        H547   1.082       .  S
C536       C1463   1.368   1_455  A
C536        H548   1.082       .  S
C537       C1466   1.372       .  A
C537        H549   1.082       .  S
C538       C1465   1.371   1_455  A
C538        H550   1.083       .  S
C539        C883   1.476       .  S
C540        C850   1.467       .  S
C541        C860   1.481       .  S
C542        C870   1.475       .  S
O553        C564   1.312       .  A
O554        C565   1.308       .  A
O554       Eu588   2.552       .  S
O555        C566   1.296       .  A
O555      Eu1489   2.498   1_456  S
O556        C567   1.291       .  A
O556       Eu561   2.467   1_556  S
O557        C567   1.285       .  A
O557       Eu591   2.430   1_556  S
O558        C566   1.279       .  A
O558       Eu590   2.400   1_566  S
O559        C565   1.287       .  A
O559       Eu561   2.434       .  S
O560        C564   1.283       .  A
O560       Eu561   2.419   1_556  S
Eu561      O1483   2.492   1_554  S
Eu561       O571   2.352   1_554  S
Eu561      O1491   2.348   1_554  S
Eu561       O562   2.357       .  S
Eu561      O1497   2.345       .  S
O562       Eu591   2.359       .  S
O562       Eu588   2.382       .  S
O563      Eu1489   2.349   1_456  S
O563      Eu1053   2.363   1_455  S
O563       Eu590   2.345   1_566  S
C564        C800   1.519       .  S
C565        C713   1.508       .  S
C566        C733   1.469       .  S
C567        C740   1.474       .  S
H568        O569   0.968       .  S
O569      Eu1489   2.344   1_455  S
O569       Eu590   2.368   1_565  S
O569      Eu1516   2.385   1_455  S
H570        O571   0.968       .  S
O571       Eu591   2.354   1_556  S
O572        C595   1.305       .  A
O573        C596   1.308       .  A
O573       Eu589   2.555       .  S
O574        C597   1.283       .  A
O574       Eu590   2.413       .  S
O575        C598   1.294       .  A
O575       Eu591   2.479       .  S
O576       Eu591   2.469   1_556  S
O577        C600   1.285       .  A
O578        C601   1.281   1_554  A
O578      Eu1520   2.419   1_455  S
O579        C602   1.280       .  A
O579       Eu592   2.409   1_556  S
O580        C601   1.291       .  A
O581        C602   1.292       .  A
O582        C597   1.305       .  A
O582      Eu1516   2.533   1_445  S
O583        C600   1.306       .  A
O583      Eu1517   2.540   1_455  S
O584        C599   1.304       .  A
O584       Eu589   2.529       .  S
O585        C598   1.304       .  A
O585       Eu588   2.538       .  S
O586        C595   1.288       .  A
O586       Eu592   2.453       .  S
O587        C596   1.279       .  A
O587       Eu592   2.414   1_556  S
Eu588      O1510   2.531   1_565  S
Eu588      O1497   2.378       .  S
Eu588      O1058   2.379   1_565  S
Eu589      O1511   2.543       .  S
Eu589      O1027   2.357       .  S
Eu589       O593   2.389       .  S
Eu589      O1532   2.376       .  S
Eu592      O1506   2.424       .  S
Eu592       O593   2.353   1_554  S
Eu592      O1532   2.349   1_554  S
Eu592       O606   2.340       .  S
Eu592      O1522   2.339       .  S
O594      Eu1052   2.390   1_455  S
O594      Eu1520   2.340   1_455  S
C595        C723   1.531       .  S
C596        C790   1.526       .  S
C597        C693   1.503       .  S
C598        C700   1.533       .  S
C599        C773   1.501       .  S
C600        C780   1.518       .  S
C601        C760   1.464       .  S
C602        C750   1.465       .  S
H603        O604   0.960       .  S
O604      Eu1517   2.371   1_455  S
O604      Eu1520   2.354   1_456  S
H605        O606   0.965       .  S
N607        C612   1.345       .  A
N607        C611   1.346       .  A
N607        H639   1.041       .  S
N608        C615   1.351       .  A
N608        C616   1.346       .  A
N609        C614   1.354       .  A
N609        C613   1.349       .  A
N609        H640   1.038       .  S
N610        C617   1.344       .  A
N610        C618   1.345       .  A
C611        C619   1.386   1_556  A
C611        C627   1.400       .  A
C612        C628   1.404       .  A
C612        C620   1.389   1_556  A
C613        C621   1.388       .  A
C613        C630   1.413       .  A
C614        C629   1.415       .  A
C614        C622   1.387       .  A
C615        C627   1.406       .  A
C615        C623   1.383       .  A
C616        C630   1.412       .  A
C616        C624   1.389       .  A
C617        C625   1.387       .  A
C617        C628   1.406       .  A
C618        C626   1.385       .  A
C618        C629   1.405       .  A
C619        C620   1.372       .  A
C619        H631   1.083       .  S
C620        H632   1.082       .  S
C621        C622   1.374       .  A
C621        H633   1.082       .  S
C622        H634   1.083       .  S
C623        C624   1.376       .  A
C623        H635   1.082       .  S
C624        H636   1.082       .  S
C625        C626   1.375       .  A
C625        H637   1.082       .  S
C626        H638   1.082       .  S
C627        C753   1.478       .  S
C628        C743   1.468       .  S
C629        C730   1.484       .  S
C630        C763   1.476       .  S
C641        C642   1.536       .  S
C641       C1575   1.558       .  S
C641        C645   1.524       .  S
C641        C893   1.568       .  S
C642        H649   1.083       .  S
C642       C1571   1.366   1_455  D
C643        C644   1.573       .  S
C643       C1570   1.366       .  D
C643        C720   1.523       .  S
C644        C648   1.562       .  S
C644        C646   1.570       .  S
C644        H650   1.107       .  S
C645        H651   1.087       .  S
C645       C1574   1.359       .  D
C646       C1573   1.359       .  D
C646        C710   1.520       .  S
C647       C1569   1.558       .  S
C647        H652   1.085       .  S
C647        C648   1.388       .  D
C648        C903   1.542       .  S
C653        C654   1.525       .  S
C653        C659   1.558       .  S
C653        C690   1.567       .  S
C654        H661   1.085       .  S
C654        C655   1.358       .  D
C655        C656   1.574       .  S
C655        C913   1.512       .  S
C656        C660   1.569       .  S
C656        H662   1.100       .  S
C657        H663   1.087       .  S
C657        C658   1.358       .  D
C658        C920   1.520       .  S
C659        H664   1.085       .  S
C659        C660   1.394       .  D
C660        C703   1.544       .  S
C665        C666   1.540       .  S
C665       C1599   1.542       .  S
C665        C669   1.540       .  S
C665        C823   1.567       .  S
C666        H673   1.080       .  S
C666       C1595   1.359       .  D
C667        C668   1.553       .  S
C667       C1594   1.358       .  D
C667        C803   1.516       .  S
C668        C672   1.544       .  S
C668        C670   1.571       .  S
C668        H674   1.107       .  S
C669        H675   1.086       .  S
C669       C1598   1.372       .  D
C670       C1597   1.372       .  D
C670        C793   1.518       .  S
C671       C1593   1.548       .  S
C671        H676   1.085       .  S
C671        C672   1.381       .  D
C672        C813   1.514       .  S
C677        C683   1.550   1_545  S
C677        C681   1.537   1_545  S
C677        C783   1.563       .  S
C678        H685   1.084       .  S
C678        C679   1.369       .  D
C679        C833   1.544       .  S
C680        C684   1.565       .  S
C680        C682   1.567       .  S
C680        H686   1.099       .  S
C681        H687   1.084       .  S
C681        C682   1.359       .  D
C682        C840   1.524       .  S
C683        H688   1.084       .  S
C683        C684   1.376       .  D
C684        C770   1.513       .  S
C689        C690   1.441       .  A
C689        C694   1.420       .  A
C689       Br696   1.935       .  S
C691        C692   1.406       .  A
C691       Br698   1.928       .  S
C692       Br697   1.936       .  S
C693        C694   1.408   1_545  A
C694       Br695   1.937       .  S
C699        C700   1.428       .  A
C699        C704   1.436       .  A
C699       Br706   1.928       .  S
C701        C702   1.410       .  A
C701       Br708   1.939       .  S
C702       Br707   1.925       .  S
C703        C704   1.431       .  A
C704       Br705   1.930       .  S
C709       C1638   1.418   1_455  A
C709        C714   1.417       .  A
C709       Br716   1.935       .  S
C710       C1637   1.420       .  A
C710        C711   1.418       .  A
C711        C712   1.422       .  A
C711       Br718   1.922       .  S
C712        C713   1.411       .  A
C712       Br717   1.920       .  S
C713       C1642   1.417       .  A
C714       C1641   1.418   1_455  A
C714       Br715   1.932       .  S
C719       C1648   1.406       .  A
C719        C724   1.415       .  A
C719       Br726   1.927       .  S
C720       C1647   1.407       .  A
C720        C721   1.424       .  A
C721        C722   1.426       .  A
C721       Br728   1.935       .  S
C722        C723   1.421       .  A
C722       Br727   1.930       .  S
C723       C1652   1.429       .  A
C724       C1651   1.428       .  A
C724       Br725   1.934       .  S
C729        C730   1.407       .  A
C729        C734   1.405       .  A
C729       Br736   1.928       .  S
C730        C731   1.413   1_556  A
C731        C732   1.405       .  A
C731       Br738   1.929       .  S
C732        C733   1.405   1_554  A
C732       Br737   1.931       .  S
C733        C734   1.410       .  A
C734       Br735   1.931       .  S
C739        C740   1.416       .  A
C739        C744   1.402       .  A
C739       Br746   1.924       .  S
C740        C741   1.416   1_556  A
C741        C742   1.399       .  A
C741       Br748   1.932       .  S
C742        C743   1.404   1_554  A
C742       Br747   1.937       .  S
C743        C744   1.402       .  A
C744       Br745   1.935       .  S
C749        C750   1.405   1_554  A
C749        C754   1.404       .  A
C749       Br756   1.928       .  S
C750        C751   1.409       .  A
C751        C752   1.400       .  A
C751       Br758   1.929       .  S
C752        C753   1.410       .  A
C752       Br757   1.934       .  S
C753        C754   1.408   1_556  A
C754       Br755   1.927       .  S
C759        C760   1.411       .  A
C759        C764   1.403       .  A
C759       Br766   1.930       .  S
C760        C761   1.405   1_556  A
C761        C762   1.403       .  A
C761       Br768   1.930       .  S
C762        C763   1.409   1_554  A
C762       Br767   1.930       .  S
C763        C764   1.405       .  A
C764       Br765   1.931       .  S
C769        C770   1.415       .  A
C769        C774   1.409       .  A
C769       Br776   1.913       .  S
C771        C772   1.410       .  A
C771       Br778   1.928       .  S
C772        C773   1.408       .  A
C772       Br777   1.910       .  S
C774       Br775   1.931       .  S
C779        C780   1.424       .  A
C779        C784   1.421       .  A
C779       Br786   1.937       .  S
C781        C782   1.421       .  A
C781       Br788   1.934       .  S
C782        C783   1.433   1_565  A
C782       Br787   1.941       .  S
C784       Br785   1.931       .  S
C789       C1718   1.420       .  A
C789        C794   1.421       .  A
C789       Br796   1.936       .  S
C790       C1717   1.417       .  A
C790        C791   1.440       .  A
C791        C792   1.414       .  A
C791       Br798   1.942       .  S
C792        C793   1.402       .  A
C792       Br797   1.928       .  S
C793       C1722   1.422       .  A
C794       C1721   1.421       .  A
C794       Br795   1.924       .  S
C799        C800   1.428       .  A
C799        C804   1.411       .  A
C799       Br806   1.925       .  S
C800       C1729   1.416       .  A
C801       C1728   1.417       .  A
C801        C802   1.428       .  A
C801       Br808   1.928       .  S
C802       C1731   1.422       .  A
C802       Br807   1.918       .  S
C803       C1730   1.421       .  A
C803        C804   1.409       .  A
C804       Br805   1.941       .  S
C809        C810   1.416       .  A
C809        C814   1.411       .  A
C809       Br816   1.930       .  S
C810        C811   1.408       .  A
C811        C812   1.416       .  A
C811       Br818   1.933       .  S
C812        C813   1.426       .  A
C812       Br817   1.928       .  S
C813        C814   1.420       .  A
C814       Br815   1.941       .  S
C819        C820   1.405       .  A
C819        C824   1.416       .  A
C819       Br826   1.932       .  S
C820        C821   1.414       .  A
C821        C822   1.415       .  A
C821       Br828   1.928       .  S
C822        C823   1.423       .  A
C822       Br827   1.926       .  S
C823        C824   1.432       .  A
C824       Br825   1.939       .  S
C829        C830   1.399       .  A
C829        C834   1.411       .  A
C829       Br836   1.922       .  S
C830        C831   1.413       .  A
C831        C832   1.432       .  A
C831       Br838   1.929       .  S
C832        C833   1.431       .  A
C832       Br837   1.924       .  S
C833        C834   1.428       .  A
C834       Br835   1.938       .  S
C839        C840   1.407       .  A
C839        C844   1.424       .  A
C839       Br846   1.935       .  S
C840        C841   1.423       .  A
C841        C842   1.419       .  A
C841       Br848   1.928       .  S
C842        C843   1.422       .  A
C842       Br847   1.940       .  S
C843        C844   1.440       .  A
C844       Br845   1.939       .  S
C849        C850   1.402       .  A
C849        C854   1.395       .  A
C849       Br856   1.935       .  S
C850        C851   1.405       .  A
C851        C852   1.399       .  A
C851       Br858   1.934       .  S
C852        C853   1.415       .  A
C852       Br857   1.927       .  S
C853        C854   1.417       .  A
C854       Br855   1.935       .  S
C859        C860   1.402       .  A
C859        C864   1.398       .  A
C859       Br866   1.929       .  S
C860        C861   1.411       .  A
C861        C862   1.405       .  A
C861       Br868   1.936       .  S
C862        C863   1.415       .  A
C862       Br867   1.929       .  S
C863        C864   1.408       .  A
C864       Br865   1.915       .  S
C869        C870   1.400       .  A
C869        C874   1.387       .  A
C869       Br876   1.929       .  S
C870        C871   1.412       .  A
C871        C872   1.405       .  A
C871       Br878   1.932       .  S
C872        C873   1.416       .  A
C872       Br877   1.926       .  S
C873        C874   1.405       .  A
C874       Br875   1.930       .  S
C879        C880   1.413       .  A
C879        C884   1.406       .  A
C879       Br886   1.921       .  S
C880        C881   1.403       .  A
C881        C882   1.399       .  A
C881       Br888   1.929       .  S
C882        C883   1.411       .  A
C882       Br887   1.933       .  S
C883        C884   1.404       .  A
C884       Br885   1.931       .  S
C889        C890   1.413       .  A
C889        C894   1.411       .  A
C889       Br896   1.938       .  S
C890        C891   1.409       .  A
C891        C892   1.420       .  A
C891       Br898   1.931       .  S
C892        C893   1.434       .  A
C892       Br897   1.935       .  S
C893        C894   1.422       .  A
C894       Br895   1.923       .  S
C899        C900   1.433       .  A
C899        C904   1.414       .  A
C899       Br906   1.943       .  S
C900        C901   1.419       .  A
C901        C902   1.431       .  A
C901       Br908   1.930       .  S
C902        C903   1.428       .  A
C902       Br907   1.923       .  S
C903        C904   1.416       .  A
C904       Br905   1.926       .  S
C909        C910   1.412       .  A
C909        C914   1.428       .  A
C909       Br916   1.926       .  S
C910        C911   1.400       .  A
C911        C912   1.405       .  A
C911       Br918   1.918       .  S
C912        C913   1.410       .  A
C912       Br917   1.919       .  S
C913        C914   1.426       .  A
C914       Br915   1.924       .  S
C919        C920   1.421       .  A
C919        C924   1.410       .  A
C919       Br926   1.934       .  S
C920        C921   1.423       .  A
C921        C922   1.423       .  A
C921       Br928   1.920       .  S
C922        C923   1.408       .  A
C922       Br927   1.928       .  S
C923        C924   1.409       .  A
C924       Br925   1.919       .  S
O929        C940   1.308       .  A
O929       Eu965   2.552       .  S
O930        C941   1.302       .  A
O930       Eu964   2.518       .  S
O931        C942   1.276       .  A
O931       Eu937   2.396       .  S
O932        C943   1.292       .  A
O932       Eu937   2.479       .  S
O933        C943   1.285       .  A
O933       Eu967   2.437       .  S
O934        C942   1.289       .  A
O934       Eu966   2.449       .  S
O935        C941   1.294       .  A
O935       Eu937   2.476       .  S
O936        C940   1.285       .  A
O936       Eu937   2.426       .  S
Eu937       O947   2.340       .  S
Eu937       O939   2.357       .  S
Eu937       O938   2.325       .  S
Eu937       O945   2.368       .  S
O938       Eu967   2.345       .  S
O938       Eu964   2.377       .  S
O939       Eu965   2.348       .  S
O939       Eu966   2.349       .  S
C940       C1387   1.498       .  S
C941       C1294   1.504       .  S
C942       C1317   1.463       .  S
C943       C1327   1.492       .  S
H944        O945   0.965       .  S
O945       Eu966   2.372       .  S
O945       Eu964   2.377       .  S
H946        O947   0.959       .  S
O947       Eu965   2.385       .  S
O947       Eu967   2.342       .  S
O948        C971   1.305       .  A
O948       Eu964   2.537       .  S
O949        C972   1.299       .  A
O949       Eu965   2.511       .  S
O950        C973   1.285       .  A
O950       Eu966   2.424       .  S
O951        C974   1.286       .  A
O951       Eu967   2.427       .  S
O952        C975   1.288       .  A
O952       Eu967   2.440       .  S
O953        C976   1.285       .  A
O953       Eu966   2.431       .  S
O954        C977   1.280       .  A
O954       Eu968   2.407       .  S
O955        C978   1.278       .  A
O955       Eu968   2.404       .  S
O956        C977   1.296       .  A
O956       Eu966   2.498       .  S
O957        C978   1.285       .  A
O957       Eu967   2.439       .  S
O958        C973   1.309       .  A
O958       Eu964   2.557       .  S
O959        C976   1.305       .  A
O959       Eu965   2.542       .  S
O960        C975   1.299       .  A
O960       Eu965   2.499       .  S
O961        C974   1.311       .  A
O961       Eu964   2.563       .  S
O962        C971   1.289       .  A
O962       Eu968   2.463       .  S
O963        C972   1.297       .  A
O963       Eu968   2.481       .  S
Eu964       O982   2.375       .  S
Eu964       O970   2.378       .  S
Eu965       O969   2.393       .  S
Eu965       O980   2.373       .  S
Eu966       O980   2.335       .  S
Eu966       O970   2.346       .  S
Eu967       O969   2.355       .  S
Eu967       O982   2.353       .  S
Eu968       O969   2.349       .  S
Eu968       O980   2.351       .  S
Eu968       O982   2.348       .  S
Eu968       O970   2.352       .  S
C971       C1307   1.535       .  S
C972       C1374   1.507       .  S
C973       C1274   1.514       .  S
C974       C1284   1.505       .  S
C975       C1354   1.493       .  S
C976       C1364   1.513       .  S
C977       C1344   1.470       .  S
C978       C1337   1.475       .  S
H979        O980   0.973       .  S
H981        O982   0.966       .  S
N983        C988   1.346   1_565  A
N983       C1451   1.346       .  A
N983       H1015   1.035       .  S
N984        C992   1.342       .  A
N985        C990   1.360   1_565  A
N985       C1453   1.350       .  A
N985       H1016   1.035       .  S
N986        C994   1.347       .  A
C987       N1447   1.348       .  A
C987        C995   1.384       .  A
C987       C1003   1.402       .  A
C988       C1004   1.411       .  A
C988        C996   1.391       .  A
C989       N1449   1.350       .  A
C989        C997   1.393       .  A
C989       C1006   1.426       .  A
C990       C1005   1.420       .  A
C990        C998   1.382       .  A
C991       C1003   1.403       .  A
C991        C999   1.382       .  A
C992       C1006   1.411       .  A
C992       C1000   1.391       .  A
C993       C1001   1.388       .  A
C993       C1004   1.404       .  A
C994       C1002   1.384       .  A
C994       C1005   1.405       .  A
C995       C1460   1.373       .  A
C995       H1007   1.081       .  S
C996       C1459   1.376   1_545  A
C996       H1008   1.083       .  S
C997       C1462   1.368       .  A
C997       H1009   1.081       .  S
C998       C1461   1.362   1_545  A
C998       H1010   1.080       .  S
C999       H1011   1.083       .  S
C1000      H1012   1.082       .  S
C1001      H1013   1.082       .  S
C1002      H1014   1.082       .  S
C1003      C1347   1.478       .  S
C1004      C1314   1.463       .  S
C1005      C1324   1.506       .  S
C1006      C1334   1.477       .  S
O1017      C1028   1.310       .  A
O1017     Eu1517   2.568   1_455  S
O1018      C1029   1.310       .  A
O1018     Eu1052   2.561       .  S
O1019      C1030   1.293       .  A
O1020      C1031   1.289       .  A
O1020     Eu1025   2.452   1_556  S
O1021      C1031   1.285       .  A
O1021     Eu1055   2.425       .  S
O1022      C1030   1.280   1_554  A
O1022     Eu1054   2.406       .  S
O1023      C1029   1.284       .  A
O1023     Eu1025   2.417       .  S
O1024      C1028   1.280   1_655  A
O1024     Eu1025   2.413   1_556  S
Eu1025     O1035   2.350   1_554  S
Eu1025     O1026   2.356       .  S
O1026     Eu1055   2.354   1_554  S
O1026     Eu1052   2.367       .  S
O1027     Eu1054   2.344   1_556  S
C1028      C1264   1.526       .  S
C1029      C1177   1.505       .  S
C1030      C1197   1.467       .  S
C1031      C1204   1.466       .  S
H1032      O1033   0.963       .  S
O1033     Eu1054   2.362       .  S
H1034      O1035   0.968       .  S
O1035     Eu1517   2.371       .  S
O1035     Eu1055   2.368       .  S
O1036      C1059   1.305       .  A
O1036     Eu1516   2.548   1_545  S
O1037      C1060   1.307       .  A
O1037     Eu1053   2.553   1_545  S
O1038      C1061   1.279       .  A
O1038     Eu1054   2.396       .  S
O1039      C1062   1.289       .  A
O1039     Eu1055   2.464   1_554  S
O1040      C1527   1.290       .  A
O1040     Eu1055   2.443       .  S
O1041      C1064   1.285       .  A
O1041     Eu1518   2.437   1_556  S
O1042      C1065   1.280       .  A
O1043      C1066   1.285       .  A
O1043     Eu1056   2.439       .  S
O1044      C1065   1.288       .  A
O1044     Eu1518   2.453       .  S
O1045      C1066   1.288       .  A
O1045     Eu1519   2.456   1_545  S
O1046      C1061   1.306       .  A
O1047      C1064   1.304       .  A
O1048      C1063   1.295       .  A
O1048     Eu1053   2.480       .  S
O1049      C1062   1.305       .  A
O1049     Eu1052   2.546       .  S
O1050      C1059   1.278       .  A
O1050     Eu1056   2.412       .  S
O1051      C1060   1.287       .  A
O1051     Eu1056   2.447   1_556  S
Eu1052     O1500   2.543       .  S
Eu1052     O1534   2.373       .  S
Eu1053     O1481   2.592       .  S
Eu1053     O1499   2.377       .  S
Eu1053     O1057   2.398   1_565  S
Eu1054     O1505   2.424   1_554  S
Eu1054     O1508   2.460       .  S
Eu1054     O1532   2.324   1_554  S
Eu1054     O1522   2.350       .  S
Eu1055     O1509   2.481       .  S
Eu1055     O1521   2.342       .  S
Eu1055     O1534   2.343   1_556  S
Eu1056     O1057   2.348   1_554  S
Eu1056     O1070   2.345       .  S
O1057     Eu1519   2.362   1_546  S
O1058     Eu1518   2.338       .  S
C1059      C1187   1.526       .  S
C1060      C1254   1.533       .  S
C1061      C1157   1.502       .  S
C1062      C1164   1.539       .  S
C1063      O1504   1.294       .  A
C1063      C1237   1.482       .  S
C1064      C1244   1.521       .  S
C1065      C1224   1.457       .  S
C1066      C1214   1.466       .  S
H1067      O1068   0.966       .  S
O1068     Eu1518   2.340   1_556  S
H1069      O1070   0.967       .  S
O1070     Eu1516   2.370   1_545  S
O1070     Eu1519   2.335   1_545  S
N1071      C1076   1.349       .  A
N1071      C1075   1.349       .  A
N1071      H1103   1.039   1_554  S
N1072      C1079   1.351       .  A
N1072      C1080   1.349       .  A
N1073      C1078   1.353       .  A
N1073      C1077   1.348       .  A
N1073      H1104   1.038   1_554  S
N1074      C1081   1.344       .  A
N1074      C1082   1.346       .  A
C1075      C1083   1.386       .  A
C1075      C1091   1.407       .  A
C1076      C1092   1.410   1_554  A
C1076      C1084   1.388       .  A
C1077      C1085   1.387       .  A
C1077      C1094   1.410       .  A
C1078      C1093   1.415   1_554  A
C1078      C1086   1.387       .  A
C1079      C1091   1.410       .  A
C1079      C1087   1.386       .  A
C1080      C1094   1.410       .  A
C1080      C1088   1.387       .  A
C1081      C1089   1.387       .  A
C1081      C1092   1.407       .  A
C1082      C1090   1.386       .  A
C1082      C1093   1.406       .  A
C1083      C1084   1.375       .  A
C1083      H1095   1.082       .  S
C1084      H1096   1.082       .  S
C1085      C1086   1.377       .  A
C1085      H1097   1.082       .  S
C1086      H1098   1.083       .  S
C1087      C1088   1.371       .  A
C1087      H1099   1.082       .  S
C1088      H1100   1.082       .  S
C1089      C1090   1.375       .  A
C1089      H1101   1.082       .  S
C1090      H1102   1.082       .  S
C1091      C1217   1.480       .  S
C1092      C1207   1.474       .  S
C1093      C1194   1.483       .  S
C1094      C1227   1.476       .  S
C1105      C1106   1.534       .  S
C1105      C1109   1.525       .  S
C1105      C1357   1.562       .  S
C1106      H1113   1.084       .  S
C1107      C1108   1.563       .  S
C1107      C1184   1.509       .  S
C1108      C1112   1.545       .  S
C1108      C1110   1.563   1_655  S
C1108      H1114   1.108       .  S
C1109      H1115   1.087       .  S
C1110      C1174   1.520   1_455  S
C1111      H1116   1.085       .  S
C1111      C1112   1.387       .  D
C1112      C1367   1.516       .  S
C1117      C1118   1.527       .  S
C1117      C1123   1.558       .  S
C1117      C1585   1.524       .  S
C1117      C1154   1.565       .  S
C1118      H1125   1.085       .  S
C1118      C1119   1.357       .  D
C1119      C1120   1.569       .  S
C1119      C1377   1.512       .  S
C1120      C1124   1.574       .  S
C1120      C1586   1.566       .  S
C1120      H1126   1.095       .  S
C1121      C1581   1.522   1_545  S
C1121      H1127   1.086       .  S
C1121      C1122   1.359       .  D
C1122      C1584   1.575   1_545  S
C1122      C1384   1.533       .  S
C1123      H1128   1.084       .  S
C1123      C1124   1.396       .  D
C1124      C1167   1.557       .  S
C1129      C1130   1.540       .  S
C1129      C1133   1.544       .  S
C1129      C1287   1.578       .  S
C1130      H1137   1.082       .  S
C1131      C1132   1.560   1_455  S
C1131      C1267   1.512       .  S
C1132      C1136   1.556       .  S
C1132      C1134   1.575   1_655  S
C1132      H1138   1.105       .  S
C1133      H1139   1.085       .  S
C1134      C1257   1.529   1_455  S
C1135      H1140   1.084       .  S
C1135      C1136   1.377   1_455  D
C1136      C1277   1.531       .  S
C1141      C1606   1.519       .  S
C1141      C1147   1.555       .  S
C1141      C1145   1.536       .  S
C1141      C1247   1.575       .  S
C1142      C1605   1.520       .  S
C1142      H1149   1.081       .  S
C1142      C1143   1.369       .  D
C1143      C1608   1.585   1_545  S
C1143      C1297   1.556       .  S
C1144      C1607   1.579       .  S
C1144      C1148   1.548       .  S
C1144      C1146   1.566       .  S
C1144      H1150   1.105       .  S
C1145      H1151   1.084       .  S
C1145      C1146   1.363       .  D
C1146      C1304   1.525       .  S
C1147      H1152   1.084       .  S
C1147      C1148   1.382       .  D
C1148      C1234   1.506       .  S
C1153      C1154   1.437       .  A
C1153      C1158   1.420       .  A
C1153     Br1160   1.932       .  S
C1154      C1619   1.414       .  A
C1155      C1618   1.421   1_545  A
C1155      C1156   1.411       .  A
C1155     Br1162   1.923       .  S
C1156      C1621   1.415       .  A
C1156     Br1161   1.936       .  S
C1157      C1620   1.423       .  A
C1157      C1158   1.408       .  A
C1158     Br1159   1.935       .  S
C1163      C1164   1.427       .  A
C1163      C1168   1.438       .  A
C1163     Br1170   1.933       .  S
C1164      C1629   1.425       .  A
C1165      C1628   1.423   1_545  A
C1165      C1166   1.408       .  A
C1165     Br1172   1.930       .  S
C1166      C1631   1.411   1_545  A
C1166     Br1171   1.921       .  S
C1167      C1630   1.415       .  A
C1167      C1168   1.437       .  A
C1168     Br1169   1.930       .  S
C1173      C1178   1.411       .  A
C1173     Br1180   1.939       .  S
C1174      C1175   1.422       .  A
C1175      C1176   1.425       .  A
C1175     Br1182   1.922       .  S
C1176      C1177   1.412       .  A
C1176     Br1181   1.925       .  S
C1178     Br1179   1.930       .  S
C1183      C1188   1.413       .  A
C1183     Br1190   1.933       .  S
C1184      C1185   1.424       .  A
C1185      C1186   1.422       .  A
C1185     Br1192   1.936       .  S
C1186      C1187   1.419       .  A
C1186     Br1191   1.932       .  S
C1188     Br1189   1.940       .  S
C1193      C1194   1.408       .  A
C1193      C1198   1.404       .  A
C1193     Br1200   1.927       .  S
C1194      C1195   1.411   1_556  A
C1195      C1196   1.405       .  A
C1195     Br1202   1.929       .  S
C1196      C1197   1.408   1_554  A
C1196     Br1201   1.933       .  S
C1197      C1198   1.406       .  A
C1198     Br1199   1.928       .  S
C1203      C1204   1.412       .  A
C1203      C1208   1.405       .  A
C1203     Br1210   1.931       .  S
C1204      C1205   1.411   1_556  A
C1205      C1206   1.398       .  A
C1205     Br1212   1.930       .  S
C1206      C1207   1.405   1_554  A
C1206     Br1211   1.935       .  S
C1207      C1208   1.407       .  A
C1208     Br1209   1.930       .  S
C1213      C1214   1.413       .  A
C1213      C1218   1.408       .  A
C1213     Br1220   1.931       .  S
C1214      C1215   1.402   1_554  A
C1215      C1216   1.399       .  A
C1215     Br1222   1.923       .  S
C1216      C1217   1.410   1_556  A
C1216     Br1221   1.933       .  S
C1217      C1218   1.409       .  A
C1218     Br1219   1.931       .  S
C1223      C1224   1.403   1_556  A
C1223      C1228   1.399       .  A
C1223     Br1230   1.931       .  S
C1224      C1225   1.407       .  A
C1225      C1226   1.404       .  A
C1225     Br1232   1.931       .  S
C1226      C1227   1.408       .  A
C1226     Br1231   1.927       .  S
C1227      C1228   1.409   1_554  A
C1228     Br1229   1.930       .  S
C1233      C1234   1.419       .  A
C1233      C1238   1.420       .  A
C1233     Br1240   1.920       .  S
C1234      C1699   1.411       .  A
C1235      C1698   1.416   1_545  A
C1235      C1236   1.414       .  A
C1235     Br1242   1.925       .  S
C1236      C1237   1.406   1_545  A
C1236     Br1241   1.929       .  S
C1237      C1702   1.404       .  A
C1238      C1701   1.409       .  A
C1238     Br1239   1.923       .  S
C1243      C1244   1.429       .  A
C1243      C1248   1.417       .  A
C1243     Br1250   1.937       .  S
C1244      C1709   1.416   1_545  A
C1245      C1708   1.410       .  A
C1245      C1246   1.418       .  A
C1245     Br1252   1.935       .  S
C1246      C1247   1.437       .  A
C1246     Br1251   1.938       .  S
C1247      C1712   1.425       .  A
C1248      C1711   1.417       .  A
C1248     Br1249   1.940       .  S
C1253      C1258   1.416       .  A
C1253     Br1260   1.933       .  S
C1254      C1255   1.435       .  A
C1255      C1256   1.425       .  A
C1255     Br1262   1.936       .  S
C1256      C1257   1.411       .  A
C1256     Br1261   1.928       .  S
C1258     Br1259   1.920       .  S
C1263      C1264   1.437       .  A
C1263      C1268   1.418       .  A
C1263     Br1270   1.938       .  S
C1265      C1266   1.422       .  A
C1265     Br1272   1.929       .  S
C1266     Br1271   1.915       .  S
C1267      C1268   1.409       .  A
C1268     Br1269   1.937       .  S
C1273      C1274   1.423       .  A
C1273      C1278   1.419       .  A
C1273     Br1280   1.935       .  S
C1274      C1275   1.410       .  A
C1275      C1276   1.421       .  A
C1275     Br1282   1.933       .  S
C1276      C1277   1.428       .  A
C1276     Br1281   1.925       .  S
C1277      C1278   1.426       .  A
C1278     Br1279   1.944       .  S
C1283      C1284   1.406       .  A
C1283      C1288   1.420       .  A
C1283     Br1290   1.932       .  S
C1284      C1285   1.415       .  A
C1285      C1286   1.420       .  A
C1285     Br1292   1.930       .  S
C1286      C1287   1.427       .  A
C1286     Br1291   1.922       .  S
C1287      C1288   1.434       .  A
C1288     Br1289   1.938       .  S
C1293      C1294   1.395       .  A
C1293      C1298   1.409       .  A
C1293     Br1300   1.925       .  S
C1294      C1295   1.409       .  A
C1295      C1296   1.431       .  A
C1295     Br1302   1.929       .  S
C1296      C1297   1.438       .  A
C1296     Br1301   1.925       .  S
C1297      C1298   1.439       .  A
C1298     Br1299   1.941       .  S
C1303      C1304   1.406       .  A
C1303      C1308   1.420       .  A
C1303     Br1310   1.933       .  S
C1304      C1305   1.426       .  A
C1305      C1306   1.424       .  A
C1305     Br1312   1.940       .  S
C1306      C1307   1.424       .  A
C1306     Br1311   1.934       .  S
C1307      C1308   1.436       .  A
C1308     Br1309   1.936       .  S
C1313      C1314   1.401       .  A
C1313      C1318   1.390       .  A
C1313     Br1320   1.935       .  S
C1314      C1315   1.406       .  A
C1315      C1316   1.400       .  A
C1315     Br1322   1.929       .  S
C1316      C1317   1.411       .  A
C1316     Br1321   1.927       .  S
C1317      C1318   1.417       .  A
C1318     Br1319   1.938       .  S
C1323      C1324   1.414       .  A
C1323      C1328   1.410       .  A
C1323     Br1330   1.934       .  S
C1324      C1325   1.418       .  A
C1325      C1326   1.409       .  A
C1325     Br1332   1.937       .  S
C1326      C1327   1.415       .  A
C1326     Br1331   1.936       .  S
C1327      C1328   1.414       .  A
C1328     Br1329   1.926       .  S
C1333      C1334   1.397       .  A
C1333      C1338   1.388       .  A
C1333     Br1340   1.927       .  S
C1334      C1335   1.411       .  A
C1335      C1336   1.405       .  A
C1335     Br1342   1.933       .  S
C1336      C1337   1.421       .  A
C1336     Br1341   1.934       .  S
C1337      C1338   1.416       .  A
C1338     Br1339   1.938       .  S
C1343      C1344   1.409       .  A
C1343      C1348   1.403       .  A
C1343     Br1350   1.922       .  S
C1344      C1345   1.405       .  A
C1345      C1346   1.405       .  A
C1345     Br1352   1.929       .  S
C1346      C1347   1.413       .  A
C1346     Br1351   1.932       .  S
C1347      C1348   1.404       .  A
C1348     Br1349   1.929       .  S
C1353      C1354   1.413       .  A
C1353      C1358   1.411       .  A
C1353     Br1360   1.933       .  S
C1354      C1355   1.406       .  A
C1355      C1356   1.413       .  A
C1355     Br1362   1.931       .  S
C1356      C1357   1.433       .  A
C1356     Br1361   1.935       .  S
C1357      C1358   1.420       .  A
C1358     Br1359   1.920       .  S
C1363      C1364   1.421       .  A
C1363      C1368   1.404       .  A
C1363     Br1370   1.921       .  S
C1364      C1365   1.415       .  A
C1365      C1366   1.425       .  A
C1365     Br1372   1.928       .  S
C1366      C1367   1.424       .  A
C1366     Br1371   1.923       .  S
C1367      C1368   1.407       .  A
C1368     Br1369   1.927       .  S
C1373      C1374   1.417       .  A
C1373      C1378   1.429       .  A
C1373     Br1380   1.925       .  S
C1374      C1375   1.400       .  A
C1375      C1376   1.405       .  A
C1375     Br1382   1.922       .  S
C1376      C1377   1.409       .  A
C1376     Br1381   1.909       .  S
C1377      C1378   1.421       .  A
C1378     Br1379   1.925       .  S
C1383      C1384   1.428       .  A
C1383      C1388   1.416       .  A
C1383     Br1390   1.934       .  S
C1384      C1385   1.425       .  A
C1385      C1386   1.422       .  A
C1385     Br1392   1.917       .  S
C1386      C1387   1.408       .  A
C1386     Br1391   1.927       .  S
C1387      C1388   1.408       .  A
C1388     Br1389   1.928       .  S
O1393      C1404   1.308       .  A
O1393     Eu1429   2.552       .  S
O1394      C1405   1.306       .  A
O1394     Eu1428   2.543       .  S
O1395      C1406   1.278       .  A
O1395     Eu1401   2.396       .  S
O1396      C1407   1.291       .  A
O1396     Eu1401   2.465       .  S
O1397      C1407   1.281       .  A
O1397     Eu1431   2.410       .  S
O1398      C1406   1.289       .  A
O1398     Eu1430   2.449       .  S
O1399      C1405   1.293       .  A
O1399     Eu1401   2.474       .  S
O1400      C1404   1.288       .  A
O1400     Eu1401   2.439       .  S
Eu1401     O1411   2.341       .  S
Eu1401     O1403   2.352       .  S
Eu1401     O1402   2.336       .  S
Eu1401     O1409   2.365       .  S
O1402     Eu1431   2.349       .  S
O1402     Eu1428   2.378       .  S
O1403     Eu1429   2.351       .  S
O1403     Eu1430   2.344       .  S
C1404      C1851   1.504       .  S
C1405      C1758   1.511       .  S
C1406      C1781   1.462       .  S
C1407      C1791   1.471       .  S
H1408      O1409   0.965       .  S
O1409     Eu1430   2.361       .  S
O1409     Eu1428   2.373       .  S
H1410      O1411   0.958       .  S
O1411     Eu1429   2.370       .  S
O1411     Eu1431   2.348       .  S
O1412      C1435   1.305       .  A
O1412     Eu1428   2.543       .  S
O1413      C1436   1.299       .  A
O1413     Eu1429   2.505       .  S
O1414      C1437   1.286       .  A
O1414     Eu1430   2.427       .  S
O1415      C1438   1.287       .  A
O1415     Eu1431   2.437       .  S
O1416      C1439   1.287       .  A
O1416     Eu1431   2.434       .  S
O1417      C1440   1.279       .  A
O1417     Eu1430   2.414       .  S
O1418      C1441   1.283       .  A
O1418     Eu1432   2.425       .  S
O1419      C1442   1.282       .  A
O1419     Eu1432   2.420       .  S
O1420      C1441   1.292       .  A
O1420     Eu1430   2.478       .  S
O1421      C1442   1.284       .  A
O1421     Eu1431   2.430       .  S
O1422      C1437   1.299       .  A
O1422     Eu1428   2.504       .  S
O1423      C1440   1.307       .  A
O1423     Eu1429   2.558       .  S
O1424      C1439   1.302       .  A
O1424     Eu1429   2.515       .  S
O1425      C1438   1.302       .  A
O1425     Eu1428   2.521       .  S
O1426      C1435   1.284       .  A
O1426     Eu1432   2.441       .  S
O1427      C1436   1.292       .  A
O1427     Eu1432   2.456       .  S
Eu1428     O1446   2.364       .  S
Eu1428     O1434   2.378       .  S
Eu1429     O1433   2.393       .  S
Eu1429     O1444   2.365       .  S
Eu1430     O1444   2.335       .  S
Eu1430     O1434   2.341       .  S
Eu1431     O1433   2.348       .  S
Eu1431     O1446   2.341       .  S
Eu1432     O1433   2.350       .  S
Eu1432     O1444   2.345       .  S
Eu1432     O1446   2.349       .  S
Eu1432     O1434   2.351       .  S
C1435      C1771   1.538       .  S
C1436      C1838   1.497       .  S
C1437      C1738   1.492       .  S
C1438      C1748   1.495       .  S
C1439      C1818   1.500       .  S
C1440      C1828   1.530       .  S
C1441      C1808   1.468       .  S
C1442      C1801   1.470       .  S
H1443      O1444   0.957       .  S
H1445      O1446   0.966       .  S
N1447      C1452   1.347       .  A
N1447      H1479   1.039       .  S
N1448      C1456   1.346       .  A
N1449      C1454   1.354       .  A
N1449      H1480   1.032       .  S
N1450      C1458   1.341       .  A
C1451      C1459   1.384       .  A
C1451      C1467   1.403       .  A
C1452      C1468   1.408       .  A
C1452      C1460   1.389       .  A
C1453      C1461   1.391       .  A
C1453      C1470   1.427       .  A
C1454      C1469   1.415       .  A
C1454      C1462   1.384       .  A
C1455      C1467   1.406       .  A
C1455      C1463   1.383       .  A
C1456      C1470   1.412       .  A
C1456      C1464   1.390       .  A
C1457      C1465   1.388       .  A
C1457      C1468   1.401       .  A
C1458      C1466   1.385       .  A
C1458      C1469   1.401       .  A
C1459      H1471   1.083       .  S
C1460      H1472   1.083       .  S
C1461      H1473   1.077       .  S
C1462      H1474   1.080       .  S
C1463      H1475   1.082       .  S
C1464      H1476   1.082       .  S
C1465      H1477   1.082       .  S
C1466      H1478   1.083       .  S
C1467      C1811   1.478       .  S
C1468      C1778   1.460       .  S
C1469      C1788   1.479       .  S
C1470      C1798   1.477       .  S
O1481      C1492   1.314       .  A
O1482      C1493   1.308       .  A
O1482     Eu1516   2.553       .  S
O1483      C1494   1.296       .  A
O1484      C1495   1.289       .  A
O1484     Eu1489   2.458   1_556  S
O1485      C1495   1.286       .  A
O1485     Eu1519   2.426   1_556  S
O1486      C1494   1.278       .  A
O1486     Eu1518   2.398   1_566  S
O1487      C1493   1.289       .  A
O1487     Eu1489   2.445       .  S
O1488      C1492   1.282       .  A
O1488     Eu1489   2.415   1_556  S
Eu1489     O1499   2.351   1_554  S
Eu1489     O1490   2.357       .  S
O1490     Eu1519   2.358       .  S
O1490     Eu1516   2.376       .  S
O1491     Eu1518   2.348   1_566  S
C1492      C1728   1.525       .  S
C1493      C1641   1.516       .  S
C1494      C1661   1.465       .  S
C1495      C1668   1.472       .  S
H1496      O1497   0.968       .  S
O1497     Eu1518   2.359   1_565  S
H1498      O1499   0.967       .  S
O1499     Eu1519   2.357   1_556  S
O1500      C1523   1.305       .  A
O1501      C1524   1.305       .  A
O1501     Eu1517   2.540       .  S
O1502      C1525   1.285       .  A
O1502     Eu1518   2.424       .  S
O1503      C1526   1.296       .  A
O1503     Eu1519   2.493       .  S
O1504     Eu1519   2.467   1_556  S
O1505      C1528   1.283       .  A
O1506      C1529   1.281   1_554  A
O1507      C1530   1.280       .  A
O1507     Eu1520   2.411   1_556  S
O1508      C1529   1.288   1_554  A
O1509      C1530   1.294       .  A
O1510      C1525   1.304       .  A
O1511      C1528   1.307       .  A
O1512      C1527   1.302       .  A
O1512     Eu1517   2.521       .  S
O1513      C1526   1.304       .  A
O1513     Eu1516   2.537       .  S
O1514      C1523   1.289       .  A
O1514     Eu1520   2.456       .  S
O1515      C1524   1.278       .  A
O1515     Eu1520   2.415   1_556  S
Eu1517     O1521   2.392       .  S
Eu1520     O1521   2.351   1_554  S
Eu1520     O1534   2.339       .  S
C1523      C1651   1.532       .  S
C1524      C1718   1.525       .  S
C1525      C1621   1.503       .  S
C1526      C1628   1.539       .  S
C1527      C1701   1.492       .  S
C1528      C1708   1.516       .  S
C1529      C1688   1.463       .  S
C1530      C1678   1.470       .  S
H1531      O1532   0.960       .  S
H1533      O1534   0.966       .  S
N1535      C1540   1.346       .  A
N1535      C1539   1.346       .  A
N1535      H1567   1.041       .  S
N1536      C1543   1.351       .  A
N1536      C1544   1.347       .  A
N1537      C1542   1.354       .  A
N1537      C1541   1.350       .  A
N1537      H1568   1.037       .  S
N1538      C1545   1.344       .  A
N1538      C1546   1.344       .  A
C1539      C1547   1.386   1_556  A
C1539      C1555   1.401       .  A
C1540      C1556   1.404       .  A
C1540      C1548   1.388   1_556  A
C1541      C1549   1.387       .  A
C1541      C1558   1.414       .  A
C1542      C1557   1.416       .  A
C1542      C1550   1.388       .  A
C1543      C1555   1.407       .  A
C1543      C1551   1.384       .  A
C1544      C1558   1.413       .  A
C1544      C1552   1.389       .  A
C1545      C1553   1.387       .  A
C1545      C1556   1.405       .  A
C1546      C1554   1.386       .  A
C1546      C1557   1.404       .  A
C1547      C1548   1.371       .  A
C1547      H1559   1.083       .  S
C1548      H1560   1.082       .  S
C1549      C1550   1.375       .  A
C1549      H1561   1.082       .  S
C1550      H1562   1.083       .  S
C1551      C1552   1.377       .  A
C1551      H1563   1.082       .  S
C1552      H1564   1.082       .  S
C1553      C1554   1.373       .  A
C1553      H1565   1.082       .  S
C1554      H1566   1.082       .  S
C1555      C1681   1.478       .  S
C1556      C1671   1.469       .  S
C1557      C1658   1.480       .  S
C1558      C1691   1.478       .  S
C1569      C1570   1.535       .  S
C1569      C1573   1.523       .  S
C1569      C1821   1.569       .  S
C1570      H1577   1.082       .  S
C1571      C1572   1.570       .  S
C1571      C1648   1.519       .  S
C1572      C1576   1.560       .  S
C1572      C1574   1.566   1_655  S
C1572      H1578   1.106       .  S
C1573      H1579   1.087       .  S
C1574      C1638   1.519   1_455  S
C1575      H1580   1.085       .  S
C1575      C1576   1.388   1_455  D
C1576      C1831   1.539       .  S
C1581      C1582   1.523       .  S
C1581      C1587   1.559       .  S
C1581      C1618   1.571       .  S
C1582      H1589   1.084       .  S
C1582      C1583   1.357       .  D
C1583      C1584   1.577       .  S
C1583      C1841   1.513       .  S
C1584      C1588   1.573       .  S
C1584      H1590   1.100       .  S
C1585      H1591   1.086       .  S
C1585      C1586   1.361       .  D
C1586      C1848   1.526       .  S
C1587      H1592   1.085       .  S
C1587      C1588   1.396       .  D
C1588      C1631   1.553       .  S
C1593      C1594   1.536       .  S
C1593      C1597   1.542       .  S
C1593      C1751   1.572       .  S
C1594      H1601   1.079       .  S
C1595      C1596   1.553   1_455  S
C1595      C1731   1.520   1_455  S
C1596      C1600   1.544       .  S
C1596      C1598   1.572   1_655  S
C1596      H1602   1.108       .  S
C1597      H1603   1.086       .  S
C1598      C1721   1.515   1_455  S
C1599      H1604   1.085       .  S
C1599      C1600   1.376   1_455  D
C1600      C1741   1.508       .  S
C1605      C1611   1.549   1_545  S
C1605      C1609   1.534   1_545  S
C1605      C1711   1.560       .  S
C1606      H1613   1.083       .  S
C1606      C1607   1.370       .  D
C1607      C1761   1.546       .  S
C1608      C1612   1.563       .  S
C1608      C1610   1.565       .  S
C1608      H1614   1.099       .  S
C1609      H1615   1.084       .  S
C1609      C1610   1.357       .  D
C1610      C1768   1.522       .  S
C1611      H1616   1.084       .  S
C1611      C1612   1.375       .  D
C1612      C1698   1.507       .  S
C1617      C1618   1.443       .  A
C1617      C1622   1.422       .  A
C1617     Br1624   1.937       .  S
C1619      C1620   1.408       .  A
C1619     Br1626   1.922       .  S
C1620     Br1625   1.940       .  S
C1621      C1622   1.408   1_545  A
C1622     Br1623   1.937       .  S
C1627      C1628   1.429       .  A
C1627      C1632   1.439       .  A
C1627     Br1634   1.929       .  S
C1629      C1630   1.406       .  A
C1629     Br1636   1.940       .  S
C1630     Br1635   1.920       .  S
C1631      C1632   1.434       .  A
C1632     Br1633   1.930       .  S
C1637      C1642   1.417       .  A
C1637     Br1644   1.936       .  S
C1638      C1639   1.418       .  A
C1639      C1640   1.425       .  A
C1639     Br1646   1.925       .  S
C1640      C1641   1.415       .  A
C1640     Br1645   1.918       .  S
C1642     Br1643   1.931       .  S
C1647      C1652   1.417       .  A
C1647     Br1654   1.927       .  S
C1648      C1649   1.424       .  A
C1649      C1650   1.426       .  A
C1649     Br1656   1.934       .  S
C1650      C1651   1.422       .  A
C1650     Br1655   1.930       .  S
C1652     Br1653   1.935       .  S
C1657      C1658   1.406       .  A
C1657      C1662   1.403       .  A
C1657     Br1664   1.928       .  S
C1658      C1659   1.412   1_556  A
C1659      C1660   1.404       .  A
C1659     Br1666   1.929       .  S
C1660      C1661   1.404   1_554  A
C1660     Br1665   1.930       .  S
C1661      C1662   1.408       .  A
C1662     Br1663   1.931       .  S
C1667      C1668   1.416       .  A
C1667      C1672   1.403       .  A
C1667     Br1674   1.925       .  S
C1668      C1669   1.414   1_556  A
C1669      C1670   1.398       .  A
C1669     Br1676   1.934       .  S
C1670      C1671   1.404   1_554  A
C1670     Br1675   1.935       .  S
C1671      C1672   1.404       .  A
C1672     Br1673   1.935       .  S
C1677      C1678   1.407   1_554  A
C1677      C1682   1.405       .  A
C1677     Br1684   1.927       .  S
C1678      C1679   1.411       .  A
C1679      C1680   1.401       .  A
C1679     Br1686   1.929       .  S
C1680      C1681   1.409       .  A
C1680     Br1685   1.935       .  S
C1681      C1682   1.407   1_556  A
C1682     Br1683   1.928       .  S
C1687      C1688   1.410       .  A
C1687      C1692   1.403       .  A
C1687     Br1694   1.930       .  S
C1688      C1689   1.406   1_556  A
C1689      C1690   1.404       .  A
C1689     Br1696   1.930       .  S
C1690      C1691   1.410   1_554  A
C1690     Br1695   1.929       .  S
C1691      C1692   1.406       .  A
C1692     Br1693   1.930       .  S
C1697      C1698   1.415       .  A
C1697      C1702   1.408       .  A
C1697     Br1704   1.911       .  S
C1699      C1700   1.406       .  A
C1699     Br1706   1.928       .  S
C1700      C1701   1.406       .  A
C1700     Br1705   1.915       .  S
C1702     Br1703   1.932       .  S
C1707      C1708   1.425       .  A
C1707      C1712   1.420       .  A
C1707     Br1714   1.941       .  S
C1709      C1710   1.420       .  A
C1709     Br1716   1.935       .  S
C1710      C1711   1.434   1_565  A
C1710     Br1715   1.944       .  S
C1712     Br1713   1.931       .  S
C1717      C1722   1.421       .  A
C1717     Br1724   1.935       .  S
C1718      C1719   1.441       .  A
C1719      C1720   1.413       .  A
C1719     Br1726   1.946       .  S
C1720      C1721   1.401       .  A
C1720     Br1725   1.928       .  S
C1722     Br1723   1.921       .  S
C1727      C1728   1.430   1_455  A
C1727      C1732   1.413       .  A
C1727     Br1734   1.928       .  S
C1729      C1730   1.426       .  A
C1729     Br1736   1.930       .  S
C1730     Br1735   1.918       .  S
C1731      C1732   1.409   1_655  A
C1732     Br1733   1.941       .  S
C1737      C1738   1.415       .  A
C1737      C1742   1.410       .  A
C1737     Br1744   1.931       .  S
C1738      C1739   1.407       .  A
C1739      C1740   1.411       .  A
C1739     Br1746   1.934       .  S
C1740      C1741   1.423       .  A
C1740     Br1745   1.927       .  S
C1741      C1742   1.420       .  A
C1742     Br1743   1.942       .  S
C1747      C1748   1.404       .  A
C1747      C1752   1.417       .  A
C1747     Br1754   1.934       .  S
C1748      C1749   1.412       .  A
C1749      C1750   1.414       .  A
C1749     Br1756   1.924       .  S
C1750      C1751   1.422       .  A
C1750     Br1755   1.924       .  S
C1751      C1752   1.435       .  A
C1752     Br1753   1.938       .  S
C1757      C1758   1.398       .  A
C1757      C1762   1.412       .  A
C1757     Br1764   1.922       .  S
C1758      C1759   1.414       .  A
C1759      C1760   1.433       .  A
C1759     Br1766   1.928       .  S
C1760      C1761   1.432       .  A
C1760     Br1765   1.923       .  S
C1761      C1762   1.429       .  A
C1762     Br1763   1.936       .  S
C1767      C1768   1.406       .  A
C1767      C1772   1.423       .  A
C1767     Br1774   1.938       .  S
C1768      C1769   1.425       .  A
C1769      C1770   1.420       .  A
C1769     Br1776   1.933       .  S
C1770      C1771   1.424       .  A
C1770     Br1775   1.941       .  S
C1771      C1772   1.442       .  A
C1772     Br1773   1.940       .  S
C1777      C1778   1.402       .  A
C1777      C1782   1.393       .  A
C1777     Br1784   1.936       .  S
C1778      C1779   1.402       .  A
C1779      C1780   1.396       .  A
C1779     Br1786   1.935       .  S
C1780      C1781   1.412       .  A
C1780     Br1785   1.917       .  S
C1781      C1782   1.415       .  A
C1782     Br1783   1.933       .  S
C1787      C1788   1.400       .  A
C1787      C1792   1.397       .  A
C1787     Br1794   1.927       .  S
C1788      C1789   1.412       .  A
C1789      C1790   1.405       .  A
C1789     Br1796   1.934       .  S
C1790      C1791   1.413       .  A
C1790     Br1795   1.931       .  S
C1791      C1792   1.406       .  A
C1792     Br1793   1.914       .  S
C1797      C1798   1.400       .  A
C1797      C1802   1.388       .  A
C1797     Br1804   1.931       .  S
C1798      C1799   1.412       .  A
C1799      C1800   1.406       .  A
C1799     Br1806   1.933       .  S
C1800      C1801   1.417       .  A
C1800     Br1805   1.929       .  S
C1801      C1802   1.406       .  A
C1802     Br1803   1.932       .  S
C1807      C1808   1.411       .  A
C1807      C1812   1.405       .  A
C1807     Br1814   1.923       .  S
C1808      C1809   1.405       .  A
C1809      C1810   1.402       .  A
C1809     Br1816   1.929       .  S
C1810      C1811   1.412       .  A
C1810     Br1815   1.932       .  S
C1811      C1812   1.405       .  A
C1812     Br1813   1.929       .  S
C1817      C1818   1.414       .  A
C1817      C1822   1.409       .  A
C1817     Br1824   1.936       .  S
C1818      C1819   1.410       .  A
C1819      C1820   1.422       .  A
C1819     Br1826   1.934       .  S
C1820      C1821   1.435       .  A
C1820     Br1825   1.935       .  S
C1821      C1822   1.421       .  A
C1822     Br1823   1.926       .  S
C1827      C1828   1.433       .  A
C1827      C1832   1.409       .  A
C1827     Br1834   1.948       .  S
C1828      C1829   1.420       .  A
C1829      C1830   1.430       .  A
C1829     Br1836   1.931       .  S
C1830      C1831   1.428       .  A
C1830     Br1835   1.925       .  S
C1831      C1832   1.414       .  A
C1832     Br1833   1.922       .  S
C1837      C1838   1.410       .  A
C1837      C1842   1.427       .  A
C1837     Br1844   1.925       .  S
C1838      C1839   1.397       .  A
C1839      C1840   1.406       .  A
C1839     Br1846   1.922       .  S
C1840      C1841   1.414       .  A
C1840     Br1845   1.916       .  S
C1841      C1842   1.425       .  A
C1842     Br1843   1.922       .  S
C1847      C1848   1.424       .  A
C1847      C1852   1.412       .  A
C1847     Br1854   1.936       .  S
C1848      C1849   1.425       .  A
C1849      C1850   1.425       .  A
C1849     Br1856   1.922       .  S
C1850      C1851   1.410       .  A
C1850     Br1855   1.928       .  S
C1851      C1852   1.409       .  A
C1852     Br1853   1.922       .  S
