geometry optimzed in LAMMPS
_audit_creation_date              2020-11-30 
_audit_creation_method            'lammps2cif' 
_symmetry_space_group_name_H-M    'P1' 
_symmetry_Int_Tables_number       1 
_symmetry_cell_setting            triclinic 
loop_ 
_symmetry_equiv_pos_as_xyz 
  x,y,z 
_cell_length_a                    49.56804117 
_cell_length_b                    50.26054562152193 
_cell_length_c                    74.13092443937373 
_cell_angle_alpha                 90.15122596502594 
_cell_angle_beta                  89.96309109314856 
_cell_angle_gamma                 121.90160860037855 
loop_ 
_atom_site_label 
_atom_site_type_symbol 
_atom_site_fract_x 
_atom_site_fract_y 
_atom_site_fract_z 
_atom_site_charge 
C1          C  0.06728393  0.12906712  0.51883689     0.80000
N2          N  0.07834790  0.14480433  0.50299073    -0.78300
C3          C  0.07642934  0.12945625  0.48748286     0.82400
N4          N  0.06270751  0.09784061  0.48794182    -0.78300
C5          C  0.05157402  0.08173541  0.50367599     0.82500
N6          N  0.05410977  0.09745657  0.51916402    -0.80000
C7          C  0.06620748  0.02480959  0.81766591     0.80000
N8          N  0.08176985  0.02769547  0.83332646    -0.78300
C9          C  0.07853414  0.04213252  0.84792526     0.82400
N10         N  0.05898734  0.05342651  0.84688476    -0.78300
C11         C  0.04386220  0.05144056  0.83114836     0.82500
N12         N  0.04755448  0.03715706  0.81655565    -0.80000
C13         C  0.00672306  0.49105347  0.51839331     0.80000
N14         N  0.99615245  0.47615980  0.50223075    -0.78300
C15         C  0.00074454  0.49256611  0.48683002     0.82400
N16         N  0.02486111  0.03211394  0.48740906    -0.78300
C17         C  0.03545444  0.04731193  0.50342408     0.82500
N18         N  0.03074888  0.03052916  0.51878593    -0.80000
In19       In  0.03867265  0.31168109  0.66891041     1.36900
C20         C  0.05248448  0.35524566  0.69309160     0.77300
O21         O  0.05564846  0.34754328  0.64772398    -0.61100
O22         O  0.50789822  0.32356490  0.65088607    -0.52000
C23         C  0.04661215  0.28019836  0.64375398     0.70000
O24         O  0.07032997  0.30244181  0.65217462    -0.46900
C25         C  0.02911409  0.26856479  0.69250848     0.74700
O26         O  0.07410319  0.35520857  0.68379310    -0.58700
O27         O  0.50715036  0.27138260  0.68451908    -0.48800
O28         O  0.02426636  0.33292130  0.68986752    -0.55200
C29         C  0.02802125  0.34084312  0.64322259     0.84900
O30         O  0.01939341  0.27426285  0.64865764    -0.57000
O31         O  0.05655236  0.29017180  0.68738409    -0.60300
C32         C  0.10938707  0.09403598  0.15178891     0.80000
N33         N  0.07709740  0.07896659  0.15147860    -0.78300
C34         C  0.06077626  0.07693152  0.16673609     0.82400
N35         N  0.07688916  0.09031900  0.18229075    -0.78300
C36         C  0.10917716  0.10595390  0.18267902     0.82500
N37         N  0.12506901  0.10748207  0.16741848    -0.80000
C38         C  0.47132655  0.03579280  0.15083762     0.80000
N39         N  0.45452698  0.01845904  0.16531811    -0.78300
C40         C  0.46931608  0.01746771  0.18047658     0.82400
N41         N  0.00882242  0.04272754  0.18107122    -0.78300
C42         C  0.02581993  0.05993477  0.16649884     0.82500
N43         N  0.50362791  0.05189792  0.15144986    -0.80000
In44       In  0.28874031  0.32092167  0.33645010     1.36900
C45         C  0.32113407  0.36122126  0.31075340     0.77300
O46         O  0.31877501  0.36006979  0.35494017    -0.61100
O47         O  0.32939553  0.32404967  0.35170123    -0.52000
C48         C  0.24547947  0.29455890  0.36201859     0.70000
O49         O  0.24938312  0.31822311  0.35333832    -0.46900
C50         C  0.25240491  0.27742291  0.31293240     0.74700
O51         O  0.30114966  0.36357702  0.32037209    -0.58700
O52         O  0.27539498  0.27750737  0.32069617    -0.48800
O53         O  0.32400201  0.33819494  0.31442070    -0.55200
C54         C  0.33631358  0.34972029  0.35925604     0.84900
O55         O  0.26401539  0.28543959  0.35756482    -0.57000
O56         O  0.24845242  0.29949795  0.31746807    -0.60300
C57         C  0.99753183  0.08508575  0.81420597     0.80000
N58         N  0.48444185  0.08694456  0.82829399    -0.78300
C59         C  0.48827212  0.07536797  0.84397425     0.82400
N60         N  0.00489419  0.06064054  0.84524424    -0.78300
C61         C  0.02196600  0.06283098  0.83036602     0.82500
N62         N  0.01824402  0.07504321  0.81485910    -0.80000
In63       In  0.29482163  0.07310714  0.99866525     1.36900
C64         C  0.25690496  0.07120691  0.97355132     0.77300
O65         O  0.25363605  0.04900906  0.01693239    -0.61100
O66         O  0.28170759  0.09971529  0.01659118    -0.52000
C67         C  0.33091111  0.07061785  0.02340181     0.70000
O68         O  0.30782116  0.04591952  0.01621024    -0.46900
C69         C  0.33401821  0.07546686  0.97447092     0.74700
O70         O  0.25286737  0.04632628  0.98076894    -0.58700
O71         O  0.33743883  0.10030474  0.98147992    -0.48800
O72         O  0.28062626  0.09692601  0.97931725    -0.55200
C73         C  0.25796170  0.07473156  0.02303430     0.84900
O74         O  0.33485421  0.09649962  0.01797279    -0.57000
O75         O  0.31005589  0.04963495  0.97983943    -0.60300
C76         C  0.46875164  0.07207778  0.85993065    -0.03400
C77         C  0.43858224  0.06777019  0.85758171    -0.06000
C78         C  0.41974645  0.06427962  0.87247144    -0.21100
C79         C  0.43096182  0.06595975  0.89004115     0.24600
C80         C  0.46117474  0.07032133  0.89252098    -0.18700
C81         C  0.47978003  0.07300626  0.87755161    -0.08600
C82         C  0.40998511  0.06216605  0.90533890    -0.18900
C83         C  0.42063195  0.07902020  0.92067850    -0.23700
C84         C  0.39860914  0.07744074  0.93488244     0.26700
C85         C  0.40739945  0.10403622  0.94547852    -0.20500
C86         C  0.38638408  0.10360039  0.95830187    -0.10100
C87         C  0.35641605  0.07631448  0.96097339    -0.10700
C88         C  0.34803253  0.04944943  0.95077779    -0.03600
C89         C  0.36885014  0.04996735  0.93787737    -0.18700
H90         H  0.42930768  0.06662558  0.84418694     0.10400
H91         H  0.39643027  0.06068276  0.87026525     0.10400
H92         H  0.47012628  0.07111011  0.90595967     0.10100
H93         H  0.50292324  0.07620471  0.87974517     0.11200
H94         H  0.38456971  0.04732756  0.90303231     0.11300
H95         H  0.44584217  0.09635957  0.92213032     0.13200
H96         H  0.43030551  0.12538913  0.94356468     0.09700
H97         H  0.39359772  0.12452407  0.96615611     0.11800
H98         H  0.32520513  0.02801051  0.95267600     0.08400
H99         H  0.36164009  0.02871815  0.93038990     0.11200
C100        C  0.44992197  0.99701319  0.19565628    -0.03400
C101        C  0.42668247  0.47899113  0.19234263    -0.06000
C102        C  0.40818359  0.45900411  0.20628111    -0.21100
C103        C  0.41980559  0.46434598  0.22398343     0.24600
C104        C  0.45072810  0.48988324  0.22746380    -0.18700
C105        C  0.46195812  0.00194922  0.21333981    -0.08600
C106        C  0.39970991  0.44172909  0.23820654    -0.18900
C107        C  0.39930118  0.44999002  0.25544036    -0.23700
C108        C  0.37855550  0.42674330  0.26927614     0.26700
C109        C  0.36481844  0.43544433  0.28280388    -0.20500
C110        C  0.34542396  0.41394352  0.29606999    -0.10100
C111        C  0.34017602  0.38363064  0.29630784    -0.10700
C112        C  0.35427747  0.37506018  0.28290996    -0.03600
C113        C  0.37307967  0.39629301  0.26945657    -0.18700
H114        H  0.41682305  0.47414218  0.17884449     0.10400
H115        H  0.38457700  0.43932759  0.20323343     0.10400
H116        H  0.45296295  0.98639295  0.24088791     0.10100
H117        H  0.48590221  0.02105889  0.21628279     0.11200
H118        H  0.38325993  0.41762393  0.23405709     0.11300
H119        H  0.41317565  0.47456731  0.25928518     0.13200
H120        H  0.36890150  0.45884374  0.28300986     0.09700
H121        H  0.33508485  0.42121049  0.30634608     0.11800
H122        H  0.35075908  0.35187650  0.28282704     0.08400
H123        H  0.38390503  0.38909407  0.25945585     0.11200
C124        C  0.35190479  0.06937750  0.03716090    -0.03400
C125        C  0.37485855  0.09672651  0.04619677    -0.06000
C126        C  0.39412509  0.09539729  0.05951939    -0.21100
C127        C  0.39077874  0.06673844  0.06417855     0.24600
C128        C  0.36855896  0.03953425  0.05466866    -0.18700
C129        C  0.34926956  0.04086404  0.04136470    -0.08600
C130        C  0.41090255  0.06614272  0.07890799    -0.18900
C131        C  0.40194382  0.04060326  0.08910386    -0.23700
C132        C  0.42069217  0.04015558  0.10465458     0.26700
C133        C  0.40462909  0.01821294  0.11840519    -0.20500
C134        C  0.42108794  0.01680942  0.13329621    -0.10100
C135        C  0.45424570  0.03709596  0.13471168    -0.10700
C136        C  0.47049666  0.05876486  0.12078631    -0.03600
C137        C  0.45392165  0.06032956  0.10590926    -0.18700
H138        H  0.37767504  0.11910860  0.04312728     0.10400
H139        H  0.41130671  0.11676719  0.06645335     0.10400
H140        H  0.36611456  0.01722318  0.05734954     0.10100
H141        H  0.33224691  0.01951588  0.03436519     0.11200
H142        H  0.43258238  0.08805509  0.08225787     0.11300
H143        H  0.37880223  0.01960211  0.08683797     0.13200
H144        H  0.37909281  0.00224077  0.11773085     0.09700
H145        H  0.40774138  0.99971946  0.14368934     0.11800
H146        H  0.49602160  0.07467935  0.12141555     0.08400
H147        H  0.46724395  0.07698793  0.09534857     0.11200
C148        C  0.12714718  0.12217750  0.19932090    -0.03400
C149        C  0.16037398  0.13637231  0.19996742    -0.06000
C150        C  0.17756869  0.15306960  0.21525143    -0.21100
C151        C  0.16213226  0.15629458  0.23019438     0.24600
C152        C  0.12879513  0.14137709  0.22978112    -0.18700
C153        C  0.11154823  0.12456014  0.21450806    -0.08600
C154        C  0.18162144  0.17526270  0.24588781    -0.18900
C155        C  0.17216684  0.18926967  0.25761246    -0.23700
C156        C  0.19273713  0.21067799  0.27226712     0.26700
C157        C  0.18695644  0.23354445  0.27855445    -0.20500
C158        C  0.20622211  0.25492508  0.29184282    -0.11300
C159        C  0.23159249  0.25373782  0.29935077    -0.10700
C160        C  0.23691533  0.23028659  0.29350523    -0.03600
C161        C  0.21764693  0.20889187  0.28009148    -0.18700
H162        H  0.17321840  0.13486684  0.18859470     0.10400
H163        H  0.20317626  0.16403486  0.21525801     0.10400
H164        H  0.11584092  0.14238323  0.24123473     0.10100
H165        H  0.08598931  0.11373181  0.21454502     0.11200
H166        H  0.20552850  0.17976109  0.24693031     0.11300
H167        H  0.14944959  0.18719282  0.25556700     0.13200
H168        H  0.16778057  0.23528595  0.27290456     0.09700
H169        H  0.20137014  0.27259390  0.29613495     0.11800
H170        H  0.25609962  0.22863446  0.29919298     0.08400
H171        H  0.22220349  0.19094924  0.27600583     0.11200
C172        C  0.23668939  0.07545914  0.03675938    -0.03400
C173        C  0.20898540  0.04765407  0.04216845    -0.06000
C174        C  0.18909711  0.04829758  0.05533178    -0.21100
C175        C  0.19653178  0.07664166  0.06349589     0.24600
C176        C  0.22400031  0.10458273  0.05775856    -0.18700
C177        C  0.24384923  0.10393623  0.04457474    -0.08600
C178        C  0.17501099  0.07601848  0.07779334    -0.18900
C179        C  0.18404866  0.09909326  0.09003689    -0.23700
C180        C  0.16379081  0.09743852  0.10532310     0.26700
C181        C  0.17885356  0.11413047  0.12109200    -0.20500
C182        C  0.16115310  0.11309031  0.13600466    -0.10100
C183        C  0.12772348  0.09560080  0.13549320    -0.10700
C184        C  0.11249102  0.07944369  0.11950400    -0.03600
C185        C  0.13034066  0.08029226  0.10455514    -0.18700
H186        H  0.20269799  0.02537755  0.03625014     0.10400
H187        H  0.16797726  0.02645378  0.05931877     0.10400
H188        H  0.23019627  0.12712087  0.06317693     0.10100
H189        H  0.26487768  0.12576003  0.04053043     0.11200
H190        H  0.15164522  0.05483204  0.07899962     0.11300
H191        H  0.20829076  0.11905438  0.08992463     0.13200
H192        H  0.20457641  0.12771522  0.12200089     0.09700
H193        H  0.17381579  0.12598930  0.14799043     0.11800
H194        H  0.08681164  0.06594621  0.11858144     0.08400
H195        H  0.11794017  0.06782122  0.09241390     0.11200
C196        C  0.99498697  0.10078317  0.79781937    -0.03400
C197        C  0.47503858  0.11196004  0.79559221    -0.06000
C198        C  0.47372536  0.12847068  0.78079749    -0.21100
C199        C  0.99305528  0.13549293  0.76818300     0.24600
C200        C  0.01581025  0.12677717  0.76885863    -0.18700
C201        C  0.01674958  0.10965706  0.78351230    -0.08600
C202        C  0.49524353  0.15818976  0.75214245    -0.18900
C203        C  0.01812263  0.17600372  0.74392059    -0.23700
C204        C  0.01924571  0.19875410  0.73049688     0.26700
C205        C  0.04922300  0.22319075  0.72476248    -0.20500
C206        C  0.05215391  0.24561346  0.71249663    -0.10100
C207        C  0.02512740  0.24429008  0.70551316    -0.10700
C208        C  0.49704550  0.22203910  0.70970619    -0.03600
C209        C  0.49439019  0.19959858  0.72206302    -0.18700
H210        H  0.45759595  0.10522745  0.80620173     0.10400
H211        H  0.45540340  0.13407338  0.78043305     0.10400
H212        H  0.03294895  0.13309820  0.75813951     0.10100
H213        H  0.03496681  0.10394380  0.78378858     0.11200
H214        H  0.47296856  0.15705038  0.75023141     0.11300
H215        H  0.04055992  0.17796266  0.74687584     0.13200
H216        H  0.07066010  0.22515855  0.72992367     0.09700
H217        H  0.07575992  0.26413485  0.70851937     0.11800
H218        H  0.47563529  0.22012074  0.70457094     0.08400
H219        H  0.47086309  0.18092140  0.72590207     0.11200
C220        C  0.49548331  0.48519343  0.46913025    -0.03400
C221        C  0.50376779  0.50223859  0.45293451    -0.06000
C222        C  0.48873858  0.48757467  0.43674906    -0.21100
C223        C  0.46524175  0.45552348  0.43631288     0.24600
C224        C  0.45770264  0.43818226  0.45240409    -0.18700
C225        C  0.47277898  0.45284746  0.46860643    -0.08600
C226        C  0.44697984  0.44183018  0.41934367    -0.18900
C227        C  0.43050651  0.41091645  0.41557017    -0.23700
C228        C  0.40879132  0.39711499  0.39980564     0.26700
C229        C  0.40153625  0.36794437  0.39297350    -0.20500
C230        C  0.37878227  0.35287506  0.37932330    -0.10100
C231        C  0.36245626  0.36650374  0.37246834    -0.10700
C232        C  0.37019187  0.39599513  0.37902869    -0.03600
C233        C  0.39305819  0.41113929  0.39253148    -0.18700
H234        H  0.02202482  0.02612578  0.45271509     0.10400
H235        H  0.49495353  0.50150345  0.42458221     0.10400
H236        H  0.43916326  0.41362302  0.45275973     0.10100
H237        H  0.46569033  0.43905437  0.48084546     0.11200
H238        H  0.44702621  0.45801049  0.40964562     0.11300
H239        H  0.43281017  0.39493851  0.42431864     0.13200
H240        H  0.41315412  0.35654634  0.39843551     0.09700
H241        H  0.37329927  0.33017323  0.37452039     0.11800
H242        H  0.35797934  0.40708994  0.37402389     0.08400
H243        H  0.39728912  0.43316184  0.39774489     0.11200
C244        C  0.00330771  0.47239804  0.53470558    -0.03400
C245        C  0.00342315  0.48337182  0.55219507    -0.06000
C246        C  0.00123604  0.46561847  0.56735739    -0.21100
C247        C  0.99974418  0.43705475  0.56530822     0.24600
C248        C  0.99886052  0.42580989  0.54781356    -0.18700
C249        C  0.00046780  0.44317987  0.53273565    -0.08600
C250        C  0.99944802  0.41942533  0.58149340    -0.18900
C251        C  0.01433187  0.40344039  0.58160565    -0.23700
C252        C  0.01677576  0.38739254  0.59774630     0.26700
C253        C  0.04427942  0.38634960  0.59991263    -0.20500
C254        C  0.04776633  0.37148728  0.61480054    -0.10100
C255        C  0.02344224  0.35653184  0.62767773    -0.10700
C256        C  0.99539516  0.35669096  0.62530772    -0.03600
C257        C  0.99219176  0.37229868  0.61052984    -0.18700
H258        H  0.00521232  0.50560907  0.55414415     0.10400
H259        H  0.00159017  0.47459719  0.58070605     0.10400
H260        H  0.99683010  0.40349715  0.54572964     0.10100
H261        H  0.00018750  0.43394887  0.51947776     0.11200
H262        H  0.98900218  0.42161306  0.59385797     0.11300
H263        H  0.02762395  0.40423663  0.56974325     0.13200
H264        H  0.06337129  0.39745209  0.59015010     0.09700
H265        H  0.06947687  0.37140139  0.61611704     0.11800
H266        H  0.48063407  0.34972911  0.63280041     0.08400
H267        H  0.97037642  0.37208027  0.60894780     0.11200
C268        C  0.05911557  0.37943418  0.70677854    -0.03400
C269        C  0.08627195  0.40976143  0.70571105    -0.06000
C270        C  0.09097901  0.43288635  0.71820420    -0.21100
C271        C  0.06914831  0.42579406  0.73225129     0.24600
C272        C  0.04224902  0.39528655  0.73340849    -0.18700
C273        C  0.03719997  0.37247375  0.72073194    -0.08600
C274        C  0.07400013  0.45065122  0.74517404    -0.18900
C275        C  0.06610654  0.44449668  0.76270782    -0.23700
C276        C  0.07022945  0.46852852  0.77597995     0.26700
C277        C  0.07903081  0.46671276  0.79367200    -0.20500
C278        C  0.08084237  0.48735872  0.80695123    -0.10100
C279        C  0.07291495  0.50976675  0.80298755    -0.10700
C280        C  0.05918735  0.00841928  0.78494438    -0.03600
C281        C  0.06323099  0.49152167  0.77175324    -0.18700
H282        H  0.10336280  0.41577804  0.69497401     0.10400
H283        H  0.11175386  0.45629197  0.71696341     0.10400
H284        H  0.02462352  0.38923764  0.74382223     0.10100
H285        H  0.01601662  0.34930388  0.72182460     0.11200
H286        H  0.08547862  0.47463003  0.74035850     0.11300
H287        H  0.05772735  0.42113724  0.76782286     0.13200
H288        H  0.08428129  0.44903087  0.79726819     0.09700
H289        H  0.08733130  0.48494064  0.82052325     0.11800
H290        H  0.05342182  0.02582220  0.78161847     0.08400
H291        H  0.05579278  0.49303680  0.75825964     0.11200
C292        C  0.09603742  0.04504222  0.86476086    -0.03400
C293        C  0.08364432  0.04536728  0.88176779    -0.06000
C294        C  0.10004293  0.04702148  0.89757460    -0.21100
C295        C  0.12953948  0.04937520  0.89664025     0.24600
C296        C  0.14193035  0.04917552  0.87960904    -0.18700
C297        C  0.12526392  0.04681958  0.86387907    -0.08600
C298        C  0.14655884  0.05080556  0.91349205    -0.18900
C299        C  0.17851286  0.06781984  0.91463355    -0.23700
C300        C  0.19671689  0.06876143  0.93080721     0.26700
C301        C  0.22670645  0.09568527  0.93396976    -0.20500
C302        C  0.24582234  0.09667784  0.94814288    -0.10100
C303        C  0.23569074  0.07042976  0.95921223    -0.10700
C304        C  0.20556489  0.04345838  0.95617379    -0.03600
C305        C  0.18611692  0.04268362  0.94217375    -0.18700
H306        H  0.06101286  0.04369557  0.88284817     0.10400
H307        H  0.08984431  0.04677276  0.91054528     0.10400
H308        H  0.16419446  0.05013845  0.87842256     0.10100
H309        H  0.13537031  0.04654953  0.85097658     0.11200
H310        H  0.13251301  0.03851043  0.92529861     0.11300
H311        H  0.19212740  0.08253649  0.90331827     0.13200
H312        H  0.23550957  0.11597330  0.92532798     0.09700
H313        H  0.26893014  0.11773531  0.95013187     0.11800
H314        H  0.19715395  0.02290613  0.96452844     0.08400
H315        H  0.16339703  0.02133397  0.93986777     0.11200
C316        C  0.09008013  0.14712936  0.47038402    -0.03400
C317        C  0.08740965  0.13125925  0.45419123    -0.06000
C318        C  0.10251111  0.14792687  0.43847368    -0.21100
C319        C  0.12049580  0.18086072  0.43844303     0.24600
C320        C  0.12235721  0.19680966  0.45447485    -0.18700
C321        C  0.10725525  0.18013354  0.47022279    -0.08600
C322        C  0.13957671  0.19737621  0.42208925    -0.18900
C323        C  0.15205300  0.22807265  0.41846574    -0.23700
C324        C  0.17505006  0.24450952  0.40343795     0.26700
C325        C  0.17795075  0.27130871  0.39546280    -0.20500
C326        C  0.20063485  0.28778109  0.38188670    -0.10100
C327        C  0.22111570  0.27795013  0.37626051    -0.10700
C328        C  0.21833407  0.25139527  0.38441287    -0.03600
C329        C  0.19573720  0.23496931  0.39779491    -0.18700
H330        H  0.07428052  0.10589930  0.45372560     0.10400
H331        H  0.10075228  0.13498058  0.42636614     0.10400
H332        H  0.13654220  0.22212235  0.45517896     0.10100
H333        H  0.10990581  0.19318919  0.48242440     0.11200
H334        H  0.14389311  0.18343268  0.41268668     0.11300
H335        H  0.14553533  0.24168282  0.42670378     0.13200
H336        H  0.16262121  0.27945041  0.39972703     0.09700
H337        H  0.20226787  0.30821440  0.37589584     0.11800
H338        H  0.23386810  0.24329464  0.38052718     0.08400
H339        H  0.19519755  0.21524865  0.40402823     0.11200
C340        C  0.04980805  0.26250802  0.62888499    -0.03400
C341        C  0.02488486  0.24692660  0.61642717    -0.06000
C342        C  0.02726765  0.23044298  0.60203006    -0.21100
C343        C  0.05426625  0.22850953  0.59995173     0.24600
C344        C  0.07926399  0.24380862  0.61250731    -0.18700
C345        C  0.07712698  0.26096002  0.62682145    -0.08600
C346        C  0.05591334  0.21194939  0.58383932    -0.18900
C347        C  0.07174109  0.19696661  0.58313475    -0.23700
C348        C  0.07129159  0.17994061  0.56660558     0.26700
C349        C  0.07190939  0.15241907  0.56806578    -0.20500
C350        C  0.07024695  0.13551617  0.55258269    -0.10100
C351        C  0.06876948  0.14635806  0.53536968    -0.10700
C352        C  0.06890457  0.17427751  0.53394127    -0.03600
C353        C  0.07011282  0.19085272  0.54935177    -0.18700
H354        H  0.00366743  0.24793895  0.61761707     0.10400
H355        H  0.00785952  0.21909792  0.59245609     0.10400
H356        H  0.10067316  0.24324734  0.61101965     0.10100
H357        H  0.09665736  0.27285080  0.63627410     0.11200
H358        H  0.04159378  0.21039910  0.57232761     0.11300
H359        H  0.08341734  0.19544929  0.59513129     0.13200
H360        H  0.07307190  0.14369781  0.58120208     0.09700
H361        H  0.07045718  0.11419677  0.55405333     0.11800
H362        H  0.06777727  0.18321918  0.52087319     0.08400
H363        H  0.07048896  0.21243210  0.54768578     0.11200
C364        C  0.05795938  0.62141904  0.51865131     0.80000
N365        N  0.06926219  0.63704954  0.50279323    -0.78300
C366        C  0.06780245  0.62161275  0.48740636     0.82400
N367        N  0.05423798  0.59001403  0.48800131    -0.78300
C368        C  0.04284380  0.57402943  0.50375916     0.82500
N369        N  0.04497964  0.58985285  0.51912453    -0.80000
C370        C  0.07180408  0.52922271  0.81774069     0.80000
N371        N  0.08754732  0.53269974  0.83342738    -0.78300
C372        C  0.08416259  0.54737548  0.84786042     0.82400
N373        N  0.06432636  0.55829880  0.84663241    -0.78300
C374        C  0.04903634  0.55573183  0.83087731     0.82500
N375        N  0.05284925  0.54121661  0.81644841    -0.80000
C376        C  0.01590436  0.99867553  0.51793212     0.80000
N377        N  0.00517316  0.98390930  0.50175370    -0.78300
C378        C  0.00940227  0.00043171  0.48645015     0.82400
N379        N  0.01634173  0.52425916  0.48767034    -0.78300
C380        C  0.02674721  0.53960087  0.50365010     0.82500
N381        N  0.02173255  0.52294329  0.51910950    -0.80000
In382      In  0.03857315  0.81166911  0.66758455     1.36900
C383        C  0.05039401  0.85416522  0.69200737     0.77300
O384        O  0.05858448  0.84841620  0.64685356    -0.61100
O385        O  0.50597195  0.82140690  0.65260755    -0.52000
C386        C  0.04304448  0.77804200  0.64248503     0.70000
O387        O  0.06774553  0.80006254  0.65037564    -0.46900
C388        C  0.03045477  0.76926405  0.69116732     0.74700
O389        O  0.07272533  0.85455822  0.68321199    -0.58700
O390        O  0.50668267  0.77109036  0.68567725    -0.48800
O391        O  0.02240335  0.83183513  0.68820536    -0.55200
C392        C  0.03166193  0.84332683  0.64195632     0.84900
O393        O  0.01650908  0.77353090  0.64779744    -0.57000
O394        O  0.05769003  0.79096630  0.68575320    -0.60300
C395        C  0.10397367  0.58674321  0.15224388     0.80000
N396        N  0.07167758  0.57148652  0.15178430    -0.78300
C397        C  0.05507770  0.56919358  0.16696789     0.82400
N398        N  0.07091827  0.58251329  0.18260134    -0.78300
C399        C  0.10320757  0.59831694  0.18314271     0.82500
N400        N  0.11938104  0.60010930  0.16795181    -0.80000
C401        C  0.47844542  0.54362567  0.15099997     0.80000
N402        N  0.46188108  0.52613277  0.16548091    -0.78300
C403        C  0.47687997  0.52508615  0.18051675     0.82400
N404        N  0.00284528  0.53506285  0.18106300    -0.78300
C405        C  0.02012301  0.55215673  0.16652985     0.82500
N406        N  0.51076146  0.55984447  0.15147146    -0.80000
In407      In  0.28185116  0.81363969  0.33674769     1.36900
C408        C  0.31402245  0.85386806  0.31096540     0.77300
O409        O  0.31196336  0.85286208  0.35516600    -0.61100
O410        O  0.32255391  0.81681398  0.35195777    -0.52000
C411        C  0.23852486  0.78717582  0.36229912     0.70000
O412        O  0.24233154  0.81076939  0.35358110    -0.46900
C413        C  0.24550790  0.76998027  0.31334346     0.74700
O414        O  0.29413714  0.85625783  0.32066031    -0.58700
O415        O  0.26856005  0.77016474  0.32109616    -0.48800
O416        O  0.31691440  0.83084601  0.31460029    -0.55200
C417        C  0.32949846  0.84251067  0.35948466     0.84900
O418        O  0.25724516  0.77824205  0.35792871    -0.57000
O419        O  0.24154143  0.79207209  0.31781098    -0.60300
C420        C  0.00202506  0.58830234  0.81346979     0.80000
N421        N  0.48181777  0.58407674  0.82903279    -0.78300
C422        C  0.48546628  0.57202683  0.84457633     0.82400
N423        N  0.00988028  0.56487400  0.84478122    -0.78300
C424        C  0.02688356  0.56679221  0.82991905     0.82500
N425        N  0.02292382  0.57850806  0.81427872    -0.80000
In426      In  0.29540235  0.57339224  0.99990554     1.36900
C427        C  0.25895789  0.57420760  0.97482427     0.77300
O428        O  0.25371471  0.54711988  0.01779568    -0.61100
O429        O  0.28048894  0.59782625  0.01828523    -0.52000
C430        C  0.33305849  0.57344036  0.02450418     0.70000
O431        O  0.31016318  0.54812125  0.01774826    -0.46900
C432        C  0.33332962  0.57356249  0.97560130     0.74700
O433        O  0.25415714  0.54867637  0.98148289    -0.58700
O434        O  0.33754877  0.59890340  0.98230759    -0.48800
O435        O  0.28276375  0.59933909  0.98114445    -0.55200
C436        C  0.25702917  0.57221609  0.02430389     0.84900
O437        O  0.33600386  0.59875693  0.01875398    -0.57000
O438        O  0.30912118  0.54819797  0.98130849    -0.60300
C439        C  0.46593078  0.56842195  0.86058254    -0.03400
C440        C  0.43576593  0.56417910  0.85835651    -0.06000
C441        C  0.41693612  0.56035038  0.87331987    -0.21100
C442        C  0.42816711  0.56162794  0.89084163     0.24600
C443        C  0.45836960  0.56590366  0.89318707    -0.18700
C444        C  0.47695648  0.56892794  0.87814551    -0.08600
C445        C  0.40734875  0.55778340  0.90624321    -0.18900
C446        C  0.41829157  0.57449812  0.92161039    -0.23700
C447        C  0.39661750  0.57339706  0.93588555     0.26700
C448        C  0.40612124  0.60014661  0.94647665    -0.20500
C449        C  0.38551908  0.60033390  0.95934028    -0.10100
C450        C  0.35523406  0.57351086  0.96208572    -0.10700
C451        C  0.34611193  0.54643522  0.95191905    -0.03600
C452        C  0.36653453  0.54635001  0.93894102    -0.18700
H453        H  0.42650161  0.56335787  0.84500201     0.10400
H454        H  0.39363987  0.55685601  0.87121443     0.10400
H455        H  0.46735172  0.56640788  0.90657692     0.10100
H456        H  0.50009705  0.57206919  0.88024315     0.11200
H457        H  0.38189504  0.54321149  0.90399344     0.11300
H458        H  0.44358316  0.59157532  0.92300080     0.13200
H459        H  0.42927399  0.62117496  0.94451426     0.09700
H460        H  0.39330219  0.62140691  0.96716766     0.11800
H461        H  0.32301358  0.52535291  0.95387780     0.08400
H462        H  0.35876569  0.52499763  0.93143258     0.11200
C463        C  0.45767166  0.50445279  0.19567005    -0.03400
C464        C  0.41874647  0.97185638  0.19237810    -0.06000
C465        C  0.40018328  0.95193170  0.20632906    -0.21100
C466        C  0.41193510  0.95703262  0.22399922     0.24600
C467        C  0.44302005  0.98230457  0.22743566    -0.18700
C468        C  0.46962156  0.50959449  0.21337712    -0.08600
C469        C  0.39181091  0.93440976  0.23822289    -0.18900
C470        C  0.39181297  0.94257160  0.25552874    -0.23700
C471        C  0.37111195  0.91932108  0.26937597     0.26700
C472        C  0.35769005  0.92811897  0.28304078    -0.20500
C473        C  0.33838591  0.90663627  0.29633761    -0.10100
C474        C  0.33293232  0.87624287  0.29647499    -0.10700
C475        C  0.34671529  0.86756714  0.28293586    -0.03600
C476        C  0.36540724  0.88878243  0.26944354    -0.18700
H477        H  0.40879578  0.96716326  0.17890519     0.10400
H478        H  0.37644273  0.93246659  0.20331173     0.10400
H479        H  0.46056602  0.49415369  0.24094932     0.10100
H480        H  0.49342735  0.52894850  0.21634753     0.11200
H481        H  0.37505471  0.91039559  0.23403936     0.11300
H482        H  0.40602094  0.96709568  0.25944681     0.13200
H483        H  0.36195504  0.95158610  0.28333334     0.09700
H484        H  0.32829525  0.91398311  0.30672098     0.11800
H485        H  0.34302914  0.84431649  0.28277297     0.08400
H486        H  0.37598338  0.88150744  0.25932486     0.11200
C487        C  0.35490414  0.57336958  0.03811098    -0.03400
C488        C  0.37749723  0.60117334  0.04691843    -0.06000
C489        C  0.39749507  0.60079206  0.06012253    -0.21100
C490        C  0.39522805  0.57264541  0.06486586     0.24600
C491        C  0.37342312  0.54503561  0.05553613    -0.18700
C492        C  0.35340863  0.54541155  0.04237650    -0.08600
C493        C  0.41591588  0.57288796  0.07952135    -0.18900
C494        C  0.40750104  0.54765656  0.08988441    -0.23700
C495        C  0.42668508  0.54764619  0.10531748     0.26700
C496        C  0.41109089  0.52541271  0.11898945    -0.20500
C497        C  0.42793332  0.52414638  0.13370787    -0.10100
C498        C  0.46103025  0.54488984  0.13503823    -0.10700
C499        C  0.47682599  0.56693100  0.12121862    -0.03600
C500        C  0.45984991  0.56835336  0.10650268    -0.18700
H501        H  0.37943530  0.62314324  0.04377744     0.10400
H502        H  0.41435874  0.62246237  0.06691441     0.10400
H503        H  0.37184009  0.52312723  0.05826140     0.10100
H504        H  0.33671070  0.52374302  0.03553417     0.11200
H505        H  0.43746734  0.59505457  0.08264672     0.11300
H506        H  0.38445328  0.52644168  0.08779588     0.13200
H507        H  0.38561962  0.50903891  0.11836996     0.09700
H508        H  0.41492742  0.50676754  0.14402588     0.11800
H509        H  0.50228954  0.58322160  0.12180713     0.08400
H510        H  0.47282632  0.58528839  0.09600311     0.11200
C511        C  0.12087793  0.61445129  0.19987313    -0.03400
C512        C  0.15408503  0.62861620  0.20070847    -0.06000
C513        C  0.17101931  0.64521622  0.21607144    -0.21100
C514        C  0.15534333  0.64838498  0.23090746     0.24600
C515        C  0.12202076  0.63352257  0.23030613    -0.18700
C516        C  0.10502573  0.61678245  0.21495246    -0.08600
C517        C  0.17460715  0.66726433  0.24667533    -0.18900
C518        C  0.16505589  0.68128112  0.25832501    -0.23700
C519        C  0.18559088  0.70276616  0.27295933     0.26700
C520        C  0.17992949  0.72579063  0.27909295    -0.20500
C521        C  0.19928330  0.74733246  0.29229182    -0.11300
C522        C  0.22461905  0.74614990  0.29985743    -0.10700
C523        C  0.22980307  0.72253121  0.29418064    -0.03600
C524        C  0.21044058  0.70096869  0.28086339    -0.18700
H525        H  0.16711719  0.62715182  0.18942391     0.10400
H526        H  0.19662304  0.65615390  0.21622308     0.10400
H527        H  0.10889109  0.63451573  0.24167194     0.10100
H528        H  0.07947108  0.60598322  0.21483773     0.11200
H529        H  0.19850050  0.67175386  0.24781525     0.11300
H530        H  0.14236578  0.67922621  0.25619455     0.13200
H531        H  0.16080284  0.72754566  0.27337774     0.09700
H532        H  0.19453693  0.76512944  0.29646206     0.11800
H533        H  0.24894789  0.72087410  0.29992611     0.08400
H534        H  0.21489452  0.68290225  0.27690326     0.11200
C535        C  0.23502966  0.57176903  0.03797916    -0.03400
C536        C  0.20817481  0.54337434  0.04355278    -0.06000
C537        C  0.18764397  0.54316503  0.05661953    -0.21100
C538        C  0.19359676  0.57123768  0.06449311     0.24600
C539        C  0.22016874  0.59970824  0.05856288    -0.18700
C540        C  0.24065217  0.59991138  0.04551795    -0.08600
C541        C  0.17156217  0.56989754  0.07869446    -0.18900
C542        C  0.17991140  0.59297014  0.09085813    -0.23700
C543        C  0.15931159  0.59095224  0.10604814     0.26700
C544        C  0.17403213  0.60806169  0.12176653    -0.20500
C545        C  0.15602699  0.60677509  0.13658453    -0.10100
C546        C  0.12261398  0.58861695  0.13602257    -0.10700
C547        C  0.10770522  0.57206547  0.12006918    -0.03600
C548        C  0.12587062  0.57314606  0.10522055    -0.18700
H549        H  0.20306879  0.52132883  0.03784791     0.10400
H550        H  0.16721276  0.52091112  0.06076029     0.10400
H551        H  0.22514692  0.62201213  0.06372156     0.10100
H552        H  0.26094544  0.62217824  0.04132788     0.11200
H553        H  0.14852134  0.54831232  0.07989935     0.11300
H554        H  0.20392403  0.61333292  0.09074659     0.13200
H555        H  0.19973761  0.62217907  0.12271318     0.09700
H556        H  0.16843978  0.62001480  0.14853759     0.11800
H557        H  0.08204104  0.55804968  0.11910910     0.08400
H558        H  0.11372136  0.56033359  0.09310818     0.11200
C559        C  0.99918767  0.60347630  0.79693728    -0.03400
C560        C  0.47294336  0.61024347  0.79663344    -0.06000
C561        C  0.47180526  0.62711583  0.78197356    -0.21100
C562        C  0.99669721  0.63738666  0.76705990     0.24600
C563        C  0.01986602  0.62923167  0.76791220    -0.18700
C564        C  0.02107582  0.61249170  0.78268823    -0.08600
C565        C  0.49345097  0.65717032  0.75340726    -0.18900
C566        C  0.02132398  0.67772150  0.74268781    -0.23700
C567        C  0.02201515  0.70012510  0.72916718     0.26700
C568        C  0.05180470  0.72460812  0.72321516    -0.20500
C569        C  0.05431001  0.74680966  0.71091541    -0.10100
C570        C  0.02702942  0.74520893  0.70414539    -0.10700
C571        C  0.49592009  0.72140764  0.71093560    -0.03600
C572        C  0.49303832  0.69882752  0.72327316    -0.18700
H573        H  0.45556262  0.60351461  0.80727797     0.10400
H574        H  0.45367453  0.63298516  0.78174639     0.10400
H575        H  0.03712490  0.63571366  0.75724440     0.10100
H576        H  0.03960763  0.60721935  0.78311444     0.11200
H577        H  0.47130750  0.65633321  0.75157000     0.11300
H578        H  0.04394361  0.68012553  0.74570969     0.13200
H579        H  0.07341998  0.72680162  0.72824116     0.09700
H580        H  0.07776852  0.76539649  0.70676710     0.11800
H581        H  0.47461158  0.71950655  0.70563946     0.08400
H582        H  0.46945015  0.68004291  0.72694284     0.11200
C583        C  0.48795832  0.97795702  0.46958231    -0.03400
C584        C  0.49653833  0.99485699  0.45332957    -0.06000
C585        C  0.48159742  0.98012338  0.43714570    -0.21100
C586        C  0.45789570  0.94814062  0.43676605     0.24600
C587        C  0.45006284  0.93092166  0.45291827    -0.18700
C588        C  0.46505441  0.94566184  0.46912515    -0.08600
C589        C  0.43977713  0.93443314  0.41976163    -0.18900
C590        C  0.42310958  0.90349869  0.41606051    -0.23700
C591        C  0.40163322  0.88976689  0.40019802     0.26700
C592        C  0.39421776  0.86047462  0.39349108    -0.20500
C593        C  0.37162966  0.84547077  0.37975691    -0.10100
C594        C  0.35562626  0.85929068  0.37269748    -0.10700
C595        C  0.36356964  0.88892493  0.37910854    -0.03600
C596        C  0.38627446  0.90400388  0.39269416    -0.18700
H597        H  0.01443245  0.51796704  0.45302953     0.10400
H598        H  0.48804519  0.99395446  0.42493004     0.10400
H599        H  0.43136792  0.90642006  0.45330856     0.10100
H600        H  0.45774653  0.93198820  0.48141036     0.11200
H601        H  0.44014010  0.95063530  0.40995733     0.11300
H602        H  0.42508935  0.88746155  0.42493175     0.13200
H603        H  0.40555782  0.84892341  0.39912508     0.09700
H604        H  0.36597538  0.82265335  0.37506993     0.11800
H605        H  0.35161227  0.90016985  0.37393546     0.08400
H606        H  0.39064443  0.92613984  0.39779610     0.11200
C607        C  0.01282665  0.97994068  0.53410316    -0.03400
C608        C  0.01096937  0.98975024  0.55158954    -0.06000
C609        C  0.00863524  0.97172994  0.56663916    -0.21100
C610        C  0.00902361  0.94413908  0.56448785     0.24600
C611        C  0.01032626  0.93413929  0.54696999    -0.18700
C612        C  0.01203795  0.95173558  0.53198790    -0.08600
C613        C  0.00807993  0.92606961  0.58059753    -0.18900
C614        C  0.02397714  0.91109761  0.58111375    -0.23700
C615        C  0.02509962  0.89406617  0.59714715     0.26700
C616        C  0.05257151  0.89323445  0.60007951    -0.20500
C617        C  0.05461807  0.87707721  0.61477396    -0.10100
C618        C  0.02890163  0.86068090  0.62667304    -0.10700
C619        C  0.00103311  0.86087874  0.62358250    -0.03600
C620        C  0.99921873  0.87767555  0.60900632    -0.18700
H621        H  0.01116486  0.01119576  0.55360780     0.10400
H622        H  0.00728676  0.97971513  0.57999847     0.10400
H623        H  0.00979321  0.91256619  0.54478557     0.10100
H624        H  0.01335336  0.94348823  0.51870187     0.11200
H625        H  0.99598257  0.92690878  0.59260312     0.11300
H626        H  0.03876103  0.91322446  0.56970573     0.13200
H627        H  0.07267929  0.90537901  0.59103592     0.09700
H628        H  0.07628248  0.87709116  0.61667800     0.11800
H629        H  0.47696594  0.84690649  0.63493288     0.08400
H630        H  0.97742743  0.87727582  0.60681957     0.11200
C631        C  0.05608779  0.87798193  0.70574654    -0.03400
C632        C  0.08347066  0.90822792  0.70527166    -0.06000
C633        C  0.08753806  0.93101079  0.71783276    -0.21100
C634        C  0.06480185  0.92364033  0.73137129     0.24600
C635        C  0.03760927  0.89324456  0.73191491    -0.18700
C636        C  0.03321307  0.87077413  0.71915434    -0.08600
C637        C  0.06918513  0.94807089  0.74447591    -0.18900
C638        C  0.06042323  0.94125765  0.76185701    -0.23700
C639        C  0.06445052  0.96490885  0.77536980     0.26700
C640        C  0.07255389  0.96224378  0.79307949    -0.20500
C641        C  0.07439392  0.98260888  0.80654446    -0.10100
C642        C  0.06718127  0.00558120  0.80274336    -0.10700
C643        C  0.06426465  0.51177401  0.78519752    -0.03600
C644        C  0.05814167  0.98844128  0.77131440    -0.18700
H645        H  0.10130300  0.91444136  0.69495606     0.10400
H646        H  0.10856204  0.95434184  0.71707262     0.10400
H647        H  0.01932803  0.88702298  0.74193416     0.10100
H648        H  0.01183544  0.84767011  0.71977769     0.11200
H649        H  0.08119392  0.97226531  0.73997891     0.11300
H650        H  0.05151475  0.91762767  0.76669017     0.13200
H651        H  0.07727172  0.94414066  0.79653715     0.09700
H652        H  0.08035844  0.97955557  0.82012004     0.11800
H653        H  0.05793278  0.52871489  0.78173985     0.08400
H654        H  0.05126144  0.99061636  0.75779662     0.11200
C655        C  0.10163686  0.55081447  0.86478192    -0.03400
C656        C  0.08866052  0.55061998  0.88168253    -0.06000
C657        C  0.10490282  0.55261369  0.89760984    -0.21100
C658        C  0.13481990  0.55586014  0.89691294     0.24600
C659        C  0.14787844  0.55632775  0.87998446    -0.18700
C660        C  0.13134894  0.55359230  0.86411797    -0.08600
C661        C  0.15137825  0.55714944  0.91391847    -0.18900
C662        C  0.18327019  0.57438156  0.91547615    -0.23700
C663        C  0.20077573  0.57458403  0.93180073     0.26700
C664        C  0.23054147  0.60138252  0.93563500    -0.20500
C665        C  0.24900591  0.60155519  0.94995824    -0.10100
C666        C  0.23840708  0.57461090  0.96047666    -0.10700
C667        C  0.20846584  0.54782743  0.95678925    -0.03600
C668        C  0.18970528  0.54785039  0.94265718    -0.18700
H669        H  0.06566011  0.54819609  0.88258614     0.10400
H670        H  0.09419673  0.55182864  0.91049566     0.10400
H671        H  0.17050854  0.55799483  0.87898435     0.10100
H672        H  0.14189343  0.55375858  0.85128901     0.11200
H673        H  0.13694795  0.54433899  0.92551086     0.11300
H674        H  0.19729161  0.58959115  0.90441376     0.13200
H675        H  0.23969111  0.62217362  0.92739077     0.09700
H676        H  0.27199474  0.62248570  0.95246329     0.11800
H677        H  0.19970303  0.52674263  0.96470419     0.08400
H678        H  0.16717915  0.52658333  0.93983009     0.11200
C679        C  0.08184150  0.63919411  0.47031314    -0.03400
C680        C  0.08009342  0.62328494  0.45429661    -0.06000
C681        C  0.09557589  0.63991503  0.43863331    -0.21100
C682        C  0.11302703  0.67285198  0.43847000     0.24600
C683        C  0.11398338  0.68882173  0.45431266    -0.18700
C684        C  0.09850904  0.67218380  0.47000837    -0.08600
C685        C  0.13246068  0.68941565  0.42221363    -0.18900
C686        C  0.14444324  0.71996524  0.41837931    -0.23700
C687        C  0.16764309  0.73656468  0.40344673     0.26700
C688        C  0.17024996  0.76313885  0.39532938    -0.20500
C689        C  0.19310146  0.77981080  0.38185966    -0.10100
C690        C  0.21404001  0.77040743  0.37646994    -0.10700
C691        C  0.21153685  0.74406703  0.38475230    -0.03600
C692        C  0.18878227  0.72744706  0.39803583    -0.18700
H693        H  0.06740146  0.59793624  0.45393995     0.10400
H694        H  0.09451456  0.62694853  0.42667849     0.10400
H695        H  0.12773178  0.71415053  0.45492619     0.10100
H696        H  0.10045655  0.68527941  0.48207007     0.11200
H697        H  0.13739643  0.67561909  0.41305498     0.11300
H698        H  0.13730626  0.73334263  0.42636129     0.13200
H699        H  0.15456179  0.77095733  0.39940347     0.09700
H700        H  0.19448621  0.80005212  0.37575624     0.11800
H701        H  0.22741045  0.73628494  0.38104424     0.08400
H702        H  0.18847654  0.70792107  0.40437475     0.11200
C703        C  0.04455207  0.75896252  0.62783344    -0.03400
C704        C  0.01839677  0.74231951  0.61626329    -0.06000
C705        C  0.01932426  0.72454927  0.60210211    -0.21100
C706        C  0.04610667  0.72243862  0.59938722     0.24600
C707        C  0.07234543  0.73885680  0.61104897    -0.18700
C708        C  0.07162150  0.75719610  0.62512057    -0.08600
C709        C  0.04624680  0.70454996  0.58351427    -0.18900
C710        C  0.06286940  0.69040086  0.58247776    -0.23700
C711        C  0.06170271  0.67278828  0.56607537     0.26700
C712        C  0.06365865  0.64602632  0.56765928    -0.20500
C713        C  0.06192206  0.62886997  0.55228930    -0.10100
C714        C  0.05909953  0.63876483  0.53505968    -0.10700
C715        C  0.05772844  0.66585069  0.53349075    -0.03600
C716        C  0.05892548  0.68262600  0.54880579    -0.18700
H717        H  0.99732500  0.74345176  0.61796219     0.10400
H718        H  0.99897626  0.71237676  0.59320389     0.10400
H719        H  0.09363634  0.73825478  0.60904184     0.10100
H720        H  0.09210563  0.76989916  0.63386836     0.11200
H721        H  0.03051154  0.70161246  0.57245842     0.11300
H722        H  0.07612849  0.69028348  0.59409970     0.13200
H723        H  0.06605579  0.63815244  0.58080856     0.09700
H724        H  0.06328048  0.60819036  0.55384127     0.11800
H725        H  0.05551282  0.67399540  0.52038977     0.08400
H726        H  0.05819378  0.70360630  0.54704790     0.11200
C727        C  0.55896197  0.12345974  0.51862399     0.80000
N728        N  0.57014084  0.13897806  0.50272370    -0.78300
C729        C  0.56845128  0.12341806  0.48734720     0.82400
N730        N  0.55479749  0.09181473  0.48799670    -0.78300
C731        C  0.54352625  0.07593777  0.50379325     0.82500
N732        N  0.54587762  0.09187742  0.51914813    -0.80000
C733        C  0.57178160  0.03088224  0.81771249     0.80000
N734        N  0.58759809  0.03447412  0.83338773    -0.78300
C735        C  0.58420900  0.04918363  0.84780301     0.82400
N736        N  0.56429853  0.06001808  0.84657002    -0.78300
C737        C  0.54893776  0.05733737  0.83082633     0.82500
N738        N  0.55275318  0.04279262  0.81641451    -0.80000
C739        C  0.51522984  0.49976778  0.51806110     0.80000
N740        N  0.50453041  0.48498492  0.50188512    -0.78300
C741        C  0.50884942  0.50148487  0.48656142     0.82400
N742        N  0.51683861  0.02609552  0.48778190    -0.78300
C743        C  0.52736251  0.04150586  0.50373607     0.82500
N744        N  0.52245418  0.02491630  0.51921075    -0.80000
In745      In  0.53909744  0.31338346  0.66755747     1.36900
C746        C  0.55141144  0.35601374  0.69199939     0.77300
O747        O  0.55865551  0.35007801  0.64680635    -0.61100
O748        O  0.00523217  0.31950201  0.65258718    -0.52000
C749        C  0.54404340  0.28009367  0.64241022     0.70000
O750        O  0.56861194  0.30210067  0.65040080    -0.46900
C751        C  0.53062767  0.27077054  0.69109059     0.74700
O752        O  0.57357544  0.35630845  0.68307795    -0.58700
O753        O  0.00594971  0.26937921  0.68564021    -0.48800
O754        O  0.52335125  0.33372858  0.68830751    -0.55200
C755        C  0.53162508  0.34479429  0.64200166     0.84900
O756        O  0.51741748  0.27542321  0.64765032    -0.57000
O757        O  0.55791711  0.29240351  0.68571637    -0.60300
C758        C  0.60265560  0.08577490  0.15215878     0.80000
N759        N  0.57035922  0.07052578  0.15174530    -0.78300
C760        C  0.55383153  0.06830268  0.16694830     0.82400
N761        N  0.56974569  0.08168439  0.18255493    -0.78300
C762        C  0.60203707  0.09747873  0.18304923     0.82500
N763        N  0.61813649  0.09920163  0.16783960    -0.80000
C764        C  0.97802709  0.04454077  0.15108350     0.80000
N765        N  0.96147216  0.02695940  0.16554364    -0.78300
C766        C  0.97648372  0.02580100  0.18054361     0.82400
N767        N  0.50165484  0.03431679  0.18113640    -0.78300
C768        C  0.51887558  0.05128069  0.16655715     0.82500
N769        N  0.01034388  0.06072815  0.15153729    -0.80000
In770      In  0.78183281  0.31368336  0.33615072     1.36900
C771        C  0.81412377  0.35393282  0.31039584     0.77300
O772        O  0.81221393  0.35278658  0.35457612    -0.61100
O773        O  0.82234594  0.31642711  0.35134807    -0.52000
C774        C  0.73855161  0.28759737  0.36174588     0.70000
O775        O  0.74251449  0.31122279  0.35299538    -0.46900
C776        C  0.74530653  0.26998080  0.31279817     0.74700
O777        O  0.79430115  0.35639687  0.32010464    -0.58700
O778        O  0.76833126  0.27010531  0.32054131    -0.48800
O779        O  0.81687611  0.33081710  0.31399406    -0.55200
C780        C  0.82951673  0.34217309  0.35889675     0.84900
O781        O  0.75708164  0.27843644  0.35737419    -0.57000
O782        O  0.74146578  0.29216001  0.31724059    -0.60300
C783        C  0.50177214  0.08972295  0.81339923     0.80000
N784        N  0.98006290  0.08196730  0.82910603    -0.78300
C785        C  0.98358142  0.06979092  0.84463659     0.82400
N786        N  0.50978045  0.06647309  0.84473822    -0.78300
C787        C  0.52672814  0.06832816  0.82986265     0.82500
N788        N  0.52269188  0.07995513  0.81420957    -0.80000
In789      In  0.79437773  0.07303713  0.99984128     1.36900
C790        C  0.75834774  0.07469988  0.97479625     0.77300
O791        O  0.75255264  0.04635540  0.01762325    -0.61100
O792        O  0.77916845  0.09705457  0.01830757    -0.52000
C793        C  0.83227383  0.07362706  0.02448303     0.70000
O794        O  0.80941962  0.04818429  0.01782324    -0.46900
C795        C  0.83189211  0.07245237  0.97552930     0.74700
O796        O  0.75326034  0.04897781  0.98131175    -0.58700
O797        O  0.83641168  0.09796231  0.98214183    -0.48800
O798        O  0.78226178  0.09962383  0.98123143    -0.55200
C799        C  0.75572884  0.07134138  0.02422484     0.84900
O800        O  0.83508254  0.09882023  0.01860753    -0.57000
O801        O  0.80757179  0.04726715  0.98133062    -0.60300
C802        C  0.96398262  0.06613497  0.86062188    -0.03400
C803        C  0.93384434  0.06194614  0.85837303    -0.06000
C804        C  0.91496861  0.05807962  0.87332247    -0.21100
C805        C  0.92613152  0.05926837  0.89085219     0.24600
C806        C  0.95629853  0.06346918  0.89321779    -0.18700
C807        C  0.97492679  0.06652988  0.87819131    -0.08600
C808        C  0.90532632  0.05550711  0.90624533    -0.18900
C809        C  0.91633234  0.07226549  0.92159350    -0.23700
C810        C  0.89474782  0.07141022  0.93584524     0.26700
C811        C  0.90448484  0.09825456  0.94638967    -0.20500
C812        C  0.88401606  0.09871046  0.95923794    -0.10100
C813        C  0.85362370  0.07206251  0.96202187    -0.10700
C814        C  0.84424920  0.04488462  0.95189988    -0.03600
C815        C  0.86454548  0.04453512  0.93892775    -0.18700
H816        H  0.92464186  0.06120689  0.84501184     0.10400
H817        H  0.89170269  0.05464950  0.87120125     0.10400
H818        H  0.96523065  0.06390823  0.90661274     0.10100
H819        H  0.99804299  0.06962352  0.88030691     0.11200
H820        H  0.87986669  0.04102430  0.90399491     0.11300
H821        H  0.94164913  0.08925043  0.92297213     0.13200
H822        H  0.92772636  0.11915563  0.94440323     0.09700
H823        H  0.89199097  0.11985962  0.96702692     0.11800
H824        H  0.82105743  0.02393718  0.95388795     0.08400
H825        H  0.85658910  0.02311795  0.93144813     0.11200
C826        C  0.95729734  0.00506572  0.19567017    -0.03400
C827        C  0.91987912  0.47249880  0.19211618    -0.06000
C828        C  0.90122098  0.45247461  0.20600726    -0.21100
C829        C  0.91286085  0.45743453  0.22369761     0.24600
C830        C  0.94393687  0.48265750  0.22721508    -0.18700
C831        C  0.96926592  0.01011420  0.21337032    -0.08600
C832        C  0.89261471  0.43473263  0.23785734    -0.18900
C833        C  0.89246110  0.44280579  0.25516393    -0.23700
C834        C  0.87159456  0.41950089  0.26894502     0.26700
C835        C  0.85817315  0.42830788  0.28260551    -0.20500
C836        C  0.83873456  0.40678734  0.29585130    -0.10100
C837        C  0.83313391  0.37633778  0.29593995    -0.10700
C838        C  0.84689629  0.36764246  0.28239916    -0.03600
C839        C  0.86573057  0.38890150  0.26895921    -0.18700
H840        H  0.91000687  0.46791939  0.17862616     0.10400
H841        H  0.87748912  0.43305021  0.20292881     0.10400
H842        H  0.96025494  0.99450803  0.24091348     0.10100
H843        H  0.99306238  0.02947302  0.21635432     0.11200
H844        H  0.87587490  0.41074990  0.23361509     0.11300
H845        H  0.90666117  0.46730857  0.25912674     0.13200
H846        H  0.86255402  0.45181781  0.28293830     0.09700
H847        H  0.82866239  0.41414886  0.30623768     0.11800
H848        H  0.84309757  0.34434742  0.28219989     0.08400
H849        H  0.87629757  0.38160928  0.25884502     0.11200
C850        C  0.85420938  0.07379587  0.03812007    -0.03400
C851        C  0.87671385  0.10169718  0.04688049    -0.06000
C852        C  0.89679147  0.10151115  0.06010857    -0.21100
C853        C  0.89468485  0.07346446  0.06492189     0.24600
C854        C  0.87296492  0.04576190  0.05564031    -0.18700
C855        C  0.85287491  0.04594186  0.04246173    -0.08600
C856        C  0.91542908  0.07387332  0.07959956    -0.18900
C857        C  0.90701431  0.04873364  0.09004798    -0.23700
C858        C  0.92622422  0.04876317  0.10548004     0.26700
C859        C  0.91064298  0.02650971  0.11914440    -0.20500
C860        C  0.92749761  0.02519221  0.13383838    -0.10100
C861        C  0.96059883  0.04590653  0.13515662    -0.10700
C862        C  0.97638259  0.06799353  0.12135427    -0.03600
C863        C  0.95939083  0.06946763  0.10666006    -0.18700
H864        H  0.87851956  0.12358746  0.04368341     0.10400
H865        H  0.91358641  0.12324931  0.06686419     0.10400
H866        H  0.87150845  0.02392793  0.05841942     0.10100
H867        H  0.83624768  0.02419969  0.03566062     0.11200
H868        H  0.93700739  0.09606005  0.08265292     0.11300
H869        H  0.88393848  0.02752745  0.08800951     0.13200
H870        H  0.88517068  0.01013776  0.11853077     0.09700
H871        H  0.91449706  0.00778298  0.14414277     0.11800
H872        H  0.00184966  0.08426795  0.12193567     0.08400
H873        H  0.97235763  0.08642649  0.09616944     0.11200
C874        C  0.61979367  0.11369832  0.19974259    -0.03400
C875        C  0.65299422  0.12779243  0.20054037    -0.06000
C876        C  0.67002014  0.14450420  0.21585542    -0.21100
C877        C  0.65444565  0.14785919  0.23067895     0.24600
C878        C  0.62112774  0.13306176  0.23012019    -0.18700
C879        C  0.60403937  0.11620518  0.21481485    -0.08600
C880        C  0.67381054  0.16685353  0.24639051    -0.18900
C881        C  0.66438115  0.18102816  0.25800155    -0.23700
C882        C  0.68503720  0.20259947  0.27257304     0.26700
C883        C  0.67959083  0.22581572  0.27861331    -0.20500
C884        C  0.69906578  0.24742221  0.29175574    -0.11300
C885        C  0.72430769  0.24611417  0.29935656    -0.10700
C886        C  0.72927917  0.22231474  0.29376915    -0.03600
C887        C  0.70979643  0.20068825  0.28050979    -0.18700
H888        H  0.66595153  0.12619026  0.18926122     0.10400
H889        H  0.69561697  0.15538525  0.21597694     0.10400
H890        H  0.60807620  0.13420089  0.24148130     0.10100
H891        H  0.57849224  0.10546491  0.21472791     0.11200
H892        H  0.69768467  0.17128741  0.24751725     0.11300
H893        H  0.64171703  0.17903371  0.25588044     0.13200
H894        H  0.66053873  0.22766381  0.27286958     0.09700
H895        H  0.69448419  0.26536220  0.29585676     0.11800
H896        H  0.74834393  0.22055663  0.29954477     0.08400
H897        H  0.71408151  0.18247812  0.27662120     0.11200
C898        C  0.73362494  0.07071541  0.03788981    -0.03400
C899        C  0.70692016  0.04224735  0.04351445    -0.06000
C900        C  0.68632060  0.04193779  0.05657630    -0.21100
C901        C  0.69206142  0.06998372  0.06438290     0.24600
C902        C  0.71846595  0.09851293  0.05838751    -0.18700
C903        C  0.73901662  0.09881541  0.04536172    -0.08600
C904        C  0.67001291  0.06859038  0.07859150    -0.18900
C905        C  0.67835260  0.09169925  0.09072923    -0.23700
C906        C  0.65779994  0.08973401  0.10592948     0.26700
C907        C  0.67257872  0.10698405  0.12159960    -0.20500
C908        C  0.65463324  0.10578480  0.13642464    -0.10100
C909        C  0.62122082  0.08757196  0.13591917    -0.10700
C910        C  0.60624846  0.07088233  0.12001089    -0.03600
C911        C  0.62435719  0.07187427  0.10515413    -0.18700
H912        H  0.70199536  0.02023186  0.03785974     0.10400
H913        H  0.66601344  0.01963755  0.06076830     0.10400
H914        H  0.72326032  0.12078971  0.06348168     0.10100
H915        H  0.75917882  0.12113753  0.04112750     0.11200
H916        H  0.64700747  0.04697249  0.07982371     0.11300
H917        H  0.70235033  0.11208623  0.09058532     0.13200
H918        H  0.69828720  0.12114965  0.12250334     0.09700
H919        H  0.66709292  0.11913401  0.14833982     0.11800
H920        H  0.58058090  0.05682146  0.11909544     0.08400
H921        H  0.61216509  0.05895289  0.09307696     0.11200
C922        C  0.49888597  0.10483591  0.79685353    -0.03400
C923        C  0.97152385  0.10845772  0.79673296    -0.06000
C924        C  0.97049668  0.12538614  0.78206852    -0.21100
C925        C  0.49637136  0.13869538  0.76695740     0.24600
C926        C  0.51950219  0.13048933  0.76779971    -0.18700
C927        C  0.52072537  0.11377741  0.78258481    -0.08600
C928        C  0.99223213  0.15536988  0.75348621    -0.18900
C929        C  0.52105550  0.17902566  0.74259727    -0.23700
C930        C  0.52183349  0.20146958  0.72907659     0.26700
C931        C  0.55166406  0.22584197  0.72310354    -0.20500
C932        C  0.55427343  0.24808605  0.71080617    -0.10100
C933        C  0.52705981  0.24664433  0.70405663    -0.10700
C934        C  0.99496609  0.21965203  0.71095017    -0.03600
C935        C  0.99199037  0.19703691  0.72329394    -0.18700
H936        H  0.95415296  0.10181195  0.80737477     0.10400
H937        H  0.95245751  0.13137855  0.78183697     0.10400
H938        H  0.53672740  0.13691638  0.75711830     0.10100
H939        H  0.53923581  0.10847502  0.78300326     0.11200
H940        H  0.97016612  0.15469533  0.75167268     0.11300
H941        H  0.54364936  0.18138081  0.74563124     0.13200
H942        H  0.57323490  0.22791669  0.72811144     0.09700
H943        H  0.57776553  0.26658412  0.70664417     0.11800
H944        H  0.97369934  0.21782560  0.70564289     0.08400
H945        H  0.96837409  0.17829808  0.72695720     0.11200
C946        C  0.98757923  0.47621054  0.46939754    -0.03400
C947        C  0.99650207  0.49315664  0.45315855    -0.06000
C948        C  0.98166822  0.47854976  0.43693005    -0.21100
C949        C  0.95772667  0.44665000  0.43649291     0.24600
C950        C  0.94954361  0.42937255  0.45263594    -0.18700
C951        C  0.96443474  0.44398528  0.46888793    -0.08600
C952        C  0.93974645  0.43312738  0.41942952    -0.18900
C953        C  0.92281783  0.40220703  0.41569919    -0.23700
C954        C  0.90146934  0.38871649  0.39977018     0.26700
C955        C  0.89379562  0.35935263  0.39304715    -0.20500
C956        C  0.87128394  0.34458097  0.37925248    -0.10100
C957        C  0.85561741  0.35871336  0.37214839    -0.10700
C958        C  0.86383130  0.38842036  0.37857301    -0.03600
C959        C  0.88646064  0.40326637  0.39221785    -0.18700
H960        H  0.51427572  0.01972058  0.45315673     0.10400
H961        H  0.98838747  0.49242348  0.42472269     0.10400
H962        H  0.93065864  0.40493950  0.45297919     0.10100
H963        H  0.95685904  0.43028717  0.48116332     0.11200
H964        H  0.94043128  0.44946293  0.40960474     0.11300
H965        H  0.92446612  0.38600331  0.42459753     0.13200
H966        H  0.90486395  0.34756419  0.39871802     0.09700
H967        H  0.86540990  0.32169724  0.37455833     0.11800
H968        H  0.85213231  0.39990152  0.37336818     0.08400
H969        H  0.89103409  0.42547119  0.39732918     0.11200
C970        C  0.51205082  0.48102823  0.53425419    -0.03400
C971        C  0.51058938  0.49106796  0.55174796    -0.06000
C972        C  0.50823785  0.47306734  0.56681323    -0.21100
C973        C  0.50819988  0.44525181  0.56466488     0.24600
C974        C  0.50905868  0.43500503  0.54714368    -0.18700
C975        C  0.51080152  0.45259081  0.53215166    -0.08600
C976        C  0.50735660  0.42723633  0.58077710    -0.18900
C977        C  0.52304637  0.41205369  0.58118669    -0.23700
C978        C  0.52437566  0.39513113  0.59721174     0.26700
C979        C  0.55183670  0.39421637  0.59997801    -0.20500
C980        C  0.55409597  0.37818385  0.61466596    -0.10100
C981        C  0.52859801  0.36198400  0.62672402    -0.10700
C982        C  0.50072079  0.36223704  0.62379541    -0.03600
C983        C  0.49870350  0.37892834  0.60922534    -0.18700
H984        H  0.51113965  0.51269449  0.55376294     0.10400
H985        H  0.50723534  0.48124825  0.58017790     0.10400
H986        H  0.50818479  0.41326032  0.54496642     0.10100
H987        H  0.51179620  0.44414775  0.51886553     0.11200
H988        H  0.49556507  0.42831105  0.59286013     0.11300
H989        H  0.53755679  0.41395355  0.56968449     0.13200
H990        H  0.57177912  0.40621083  0.59081174     0.09700
H991        H  0.57575338  0.37813851  0.61644166     0.11800
H992        H  0.97617762  0.34508513  0.63494321     0.08400
H993        H  0.47692185  0.37860118  0.60716601     0.11200
C994        C  0.55734556  0.37987972  0.70575748    -0.03400
C995        C  0.58471507  0.41012471  0.70517452    -0.06000
C996        C  0.58895693  0.43296435  0.71774436    -0.21100
C997        C  0.56641600  0.42565295  0.73139577     0.24600
C998        C  0.53924897  0.39525065  0.73205152    -0.18700
C999        C  0.53467670  0.37272405  0.71928620    -0.08600
C1000       C  0.57094102  0.45016132  0.74448402    -0.18900
C1001       C  0.56234674  0.44345844  0.76189478    -0.23700
C1002       C  0.56643284  0.46718327  0.77537279     0.26700
C1003       C  0.57467898  0.46465868  0.79307413    -0.20500
C1004       C  0.57655693  0.48508618  0.80651169    -0.10100
C1005       C  0.56924004  0.50797934  0.80269290    -0.10700
C1006       C  0.56421330  0.01333935  0.78518903    -0.03600
C1007       C  0.56002259  0.49063937  0.77129862    -0.18700
H1008       H  0.60238717  0.41629691  0.69476467     0.10400
H1009       H  0.60995501  0.45629934  0.71689537     0.10400
H1010       H  0.52110807  0.38906893  0.74215731     0.10100
H1011       H  0.51331255  0.34962053  0.71999430     0.11200
H1012       H  0.58288013  0.47432431  0.73993707     0.11300
H1013       H  0.55350586  0.41986630  0.76677156     0.13200
H1014       H  0.57947330  0.44661382  0.79654773     0.09700
H1015       H  0.58262677  0.48213821  0.82008276     0.11800
H1016       H  0.55789810  0.03028466  0.78171022     0.08400
H1017       H  0.55302753  0.49270443  0.75778983     0.11200
C1018       C  0.60171275  0.05271182  0.86472472    -0.03400
C1019       C  0.58864377  0.05235740  0.88162087    -0.06000
C1020       C  0.60487538  0.05436614  0.89755388    -0.21100
C1021       C  0.63487383  0.05779266  0.89687140     0.24600
C1022       C  0.64804355  0.05845835  0.87994605    -0.18700
C1023       C  0.63152270  0.05570247  0.86407003    -0.08600
C1024       C  0.65134787  0.05896238  0.91388848    -0.18900
C1025       C  0.68323219  0.07615688  0.91551802    -0.23700
C1026       C  0.70060426  0.07607902  0.93183822     0.26700
C1027       C  0.73042159  0.10273705  0.93578026    -0.20500
C1028       C  0.74875395  0.10260703  0.95009152    -0.10100
C1029       C  0.73795925  0.07549582  0.96048490    -0.10700
C1030       C  0.70796021  0.04886806  0.95669559    -0.03600
C1031       C  0.68934475  0.04918974  0.94257937    -0.18700
H1032       H  0.56556906  0.04977060  0.88251566     0.10400
H1033       H  0.59408105  0.05342135  0.91043509     0.10400
H1034       H  0.67074021  0.06026460  0.87895354     0.10100
H1035       H  0.64213686  0.05599763  0.85124218     0.11200
H1036       H  0.63684010  0.04602901  0.92543185     0.11300
H1037       H  0.69734258  0.09148414  0.90451632     0.13200
H1038       H  0.73971757  0.12364512  0.92762579     0.09700
H1039       H  0.77179086  0.12342408  0.95267894     0.11800
H1040       H  0.69904287  0.02765868  0.96451257     0.08400
H1041       H  0.66678189  0.02801983  0.93966985     0.11200
C1042       C  0.58232906  0.14086047  0.47019990    -0.03400
C1043       C  0.58040288  0.12481247  0.45421059    -0.06000
C1044       C  0.59574203  0.14130455  0.43848885    -0.21100
C1045       C  0.61323069  0.17423921  0.43823895     0.24600
C1046       C  0.61435246  0.19034863  0.45405515    -0.18700
C1047       C  0.59901501  0.17384652  0.46980978    -0.08600
C1048       C  0.63252557  0.19063496  0.42191327    -0.18900
C1049       C  0.64472812  0.22121333  0.41805459    -0.23700
C1050       C  0.66783461  0.23759855  0.40305431     0.26700
C1051       C  0.67070121  0.26431091  0.39496848    -0.20500
C1052       C  0.69349263  0.28078449  0.38143919    -0.10100
C1053       C  0.71410771  0.27103476  0.37595872    -0.10700
C1054       C  0.71134150  0.24455278  0.38420578    -0.03600
C1055       C  0.68865162  0.22813458  0.39754797    -0.18700
H1056       H  0.56768713  0.09946045  0.45391905     0.10400
H1057       H  0.59454996  0.12823041  0.42655675     0.10400
H1058       H  0.62812386  0.21568023  0.45460387     0.10100
H1059       H  0.60108593  0.18704341  0.48184787     0.11200
H1060       H  0.63719001  0.17667748  0.41272514     0.11300
H1061       H  0.63787200  0.23478167  0.42607070     0.13200
H1062       H  0.65526928  0.27239574  0.39911707     0.09700
H1063       H  0.69509386  0.30114816  0.37536675     0.11800
H1064       H  0.72696486  0.23650367  0.38042751     0.08400
H1065       H  0.68815844  0.20849357  0.40385788     0.11200
C1066       C  0.54577170  0.26119974  0.62772507    -0.03400
C1067       C  0.51981708  0.24478858  0.61599633    -0.06000
C1068       C  0.52091609  0.22715552  0.60181410    -0.21100
C1069       C  0.54766539  0.22494335  0.59923470     0.24600
C1070       C  0.57370473  0.24112748  0.61105343    -0.18700
C1071       C  0.57281709  0.25934377  0.62514753    -0.08600
C1072       C  0.54797387  0.20717596  0.58334761    -0.18900
C1073       C  0.56439857  0.19281597  0.58239619    -0.23700
C1074       C  0.56323579  0.17517962  0.56600497     0.26700
C1075       C  0.56482796  0.14821590  0.56762156    -0.20500
C1076       C  0.56294878  0.13096434  0.55226606    -0.10100
C1077       C  0.56033283  0.14094941  0.53501948    -0.10700
C1078       C  0.55936331  0.16825396  0.53342023    -0.03600
C1079       C  0.56072038  0.18513640  0.54871791    -0.18700
H1080       H  0.49877030  0.24599516  0.61759125     0.10400
H1081       H  0.50072085  0.21515847  0.59279699     0.10400
H1082       H  0.59496540  0.24043119  0.60915605     0.10100
H1083       H  0.59314258  0.27186376  0.63402390     0.11200
H1084       H  0.53246021  0.20445188  0.57221323     0.11300
H1085       H  0.57740554  0.19248259  0.59408582     0.13200
H1086       H  0.56701940  0.14024481  0.58078550     0.09700
H1087       H  0.56400355  0.11011921  0.55384569     0.11800
H1088       H  0.55732052  0.17648432  0.52030900     0.08400
H1089       H  0.56027982  0.20626936  0.54693463     0.11200
C1090       C  0.56687369  0.63021474  0.51884184     0.80000
N1091       N  0.57794907  0.64590511  0.50298183    -0.78300
C1092       C  0.57600567  0.63049911  0.48749312     0.82400
N1093       N  0.56224654  0.59888093  0.48798641    -0.78300
C1094       C  0.55109846  0.58282386  0.50373294     0.82500
N1095       N  0.55366215  0.59859909  0.51920232    -0.80000
C1096       C  0.56827501  0.52725487  0.81759257     0.80000
N1097       N  0.58391765  0.53026562  0.83324250    -0.78300
C1098       C  0.58066784  0.54472994  0.84782422     0.82400
N1099       N  0.56103526  0.55592215  0.84677854    -0.78300
C1100       C  0.54583614  0.55381813  0.83105306     0.82500
N1101       N  0.54953541  0.53950692  0.81647720    -0.80000
C1102       C  0.50743280  0.99302485  0.51853238     0.80000
N1103       N  0.49675500  0.97806328  0.50239707    -0.78300
C1104       C  0.50123436  0.99439945  0.48698236     0.82400
N1105       N  0.52436050  0.53317171  0.48749778    -0.78300
C1106       C  0.53492625  0.54839424  0.50350906     0.82500
N1107       N  0.53013992  0.53163023  0.51889022    -0.80000
In1108     In  0.53924977  0.81341205  0.66894638     1.36900
C1109       C  0.55280317  0.85681854  0.69317992     0.77300
O1110       O  0.55642649  0.84939332  0.64782463    -0.61100
O1111       O  0.00777602  0.82215100  0.65076780    -0.52000
C1112       C  0.54694593  0.78183199  0.64375748     0.70000
O1113       O  0.57074012  0.80407012  0.65213502    -0.46900
C1114       C  0.52991949  0.77035564  0.69250478     0.74700
O1115       O  0.57450779  0.85688477  0.68391109    -0.58700
O1116       O  0.00687705  0.76972311  0.68461908    -0.48800
O1117       O  0.52462109  0.83445104  0.68991014    -0.55200
C1118       C  0.52883548  0.84278116  0.64329760     0.84900
O1119       O  0.51977055  0.77596092  0.64871465    -0.57000
O1120       O  0.55732250  0.79201647  0.68735931    -0.60300
C1121       C  0.60982826  0.59336200  0.15179654     0.80000
N1122       N  0.57753459  0.57822669  0.15147884    -0.78300
C1123       C  0.56118765  0.57620955  0.16672103     0.82400
N1124       N  0.57727989  0.58968451  0.18226821    -0.78300
C1125       C  0.60957188  0.60538413  0.18266312     0.82500
N1126       N  0.62548971  0.60689226  0.16741799    -0.80000
C1127       C  0.97263515  0.53678395  0.15077549     0.80000
N1128       N  0.95578401  0.51932403  0.16520691    -0.78300
C1129       C  0.97050963  0.51820673  0.18035784     0.82400
N1130       N  0.50921949  0.54204059  0.18106030    -0.78300
C1131       C  0.52622810  0.55916485  0.16646789     0.82500
N1132       N  0.00493456  0.55289630  0.15142647    -0.80000
In1133     In  0.78876301  0.82084111  0.33635366     1.36900
C1134       C  0.82100973  0.86123441  0.31065338     0.77300
O1135       O  0.81903612  0.85992721  0.35483108    -0.61100
O1136       O  0.82935520  0.82371357  0.35155337    -0.52000
C1137       C  0.74546531  0.79474852  0.36193368     0.70000
O1138       O  0.74945893  0.81838603  0.35318705    -0.46900
C1139       C  0.75246897  0.77720090  0.31287852     0.74700
O1140       O  0.80105943  0.86353763  0.32033392    -0.58700
O1141       O  0.77551583  0.77739608  0.32064108    -0.48800
O1142       O  0.82391602  0.83821564  0.31425948    -0.55200
C1143       C  0.83644830  0.84942467  0.35911959     0.84900
O1144       O  0.76393683  0.78552388  0.35754357    -0.57000
O1145       O  0.74843504  0.79922603  0.31739725    -0.60300
C1146       C  0.49921732  0.58715195  0.81410996     0.80000
N1147       N  0.98464023  0.58546128  0.82835071    -0.78300
C1148       C  0.98839358  0.57379603  0.84401717     0.82400
N1149       N  0.50684282  0.56295617  0.84517430    -0.78300
C1150       C  0.52385105  0.56510346  0.83027332     0.82500
N1151       N  0.52000044  0.57719486  0.81475317    -0.80000
In1152     In  0.79578161  0.57339959  0.99859557     1.36900
C1153       C  0.75828000  0.57242773  0.97353384     0.77300
O1154       O  0.75447995  0.54886468  0.01678789    -0.61100
O1155       O  0.78244233  0.59958096  0.01669038    -0.52000
C1156       C  0.83215655  0.57133912  0.02329414     0.70000
O1157       O  0.80904674  0.54653529  0.01620520    -0.46900
C1158       C  0.83455902  0.57500840  0.97437345     0.74700
O1159       O  0.75394894  0.54731667  0.98057811    -0.58700
O1160       O  0.83829951  0.60002746  0.98130193    -0.48800
O1161       O  0.78211152  0.59793926  0.97944138    -0.55200
C1162       C  0.75871210  0.57447742  0.02302969     0.84900
O1163       O  0.83598970  0.59714077  0.01778309    -0.57000
O1164       O  0.81045203  0.54934463  0.97981967    -0.60300
C1165       C  0.96881864  0.57044566  0.85995918    -0.03400
C1166       C  0.93870203  0.56625781  0.85759357    -0.06000
C1167       C  0.91983668  0.56275395  0.87247173    -0.21100
C1168       C  0.93097147  0.56429818  0.89004753     0.24600
C1169       C  0.96112015  0.56851399  0.89254268    -0.18700
C1170       C  0.97975225  0.57121496  0.87758460    -0.08600
C1171       C  0.91001292  0.56059867  0.90533673    -0.18900
C1172       C  0.92073142  0.57742662  0.92068073    -0.23700
C1173       C  0.89878944  0.57609093  0.93485866     0.26700
C1174       C  0.90783450  0.60276334  0.94543523    -0.20500
C1175       C  0.88692862  0.60260261  0.95822807    -0.10100
C1176       C  0.85680763  0.57551438  0.96089537    -0.10700
C1177       C  0.84815540  0.54855738  0.95072396    -0.03600
C1178       C  0.86887045  0.54880591  0.93784461    -0.18700
H1179       H  0.92949740  0.56523461  0.84419431     0.10400
H1180       H  0.89657246  0.55927548  0.87025270     0.10400
H1181       H  0.97000953  0.56919795  0.90598476     0.10100
H1182       H  0.00285029  0.57431535  0.87979206     0.11200
H1183       H  0.88458882  0.54591402  0.90301396     0.11300
H1184       H  0.94597804  0.59462112  0.92214390     0.13200
H1185       H  0.93086216  0.62397296  0.94352762     0.09700
H1186       H  0.89434985  0.62358924  0.96606556     0.11800
H1187       H  0.82520239  0.52726690  0.95262292     0.08400
H1188       H  0.86145624  0.52750169  0.93036638     0.11200
C1189       C  0.95104106  0.49761819  0.19547518    -0.03400
C1190       C  0.92632300  0.97959256  0.19232404    -0.06000
C1191       C  0.90785706  0.95950411  0.20623754    -0.21100
C1192       C  0.91949536  0.96475676  0.22393498     0.24600
C1193       C  0.95040388  0.99030381  0.22743324    -0.18700
C1194       C  0.96297285  0.50240382  0.21317740    -0.08600
C1195       C  0.89943130  0.94205234  0.23813324    -0.18900
C1196       C  0.89899241  0.95023103  0.25538241    -0.23700
C1197       C  0.87827203  0.92691549  0.26919814     0.26700
C1198       C  0.86451769  0.93553727  0.28275860    -0.20500
C1199       C  0.84516689  0.91398236  0.29601523    -0.10100
C1200       C  0.83997960  0.88369241  0.29621056    -0.10700
C1201       C  0.85408944  0.87519751  0.28277611    -0.03600
C1202       C  0.87284821  0.89648447  0.26933267    -0.18700
H1203       H  0.91645328  0.97481375  0.17882935     0.10400
H1204       H  0.88426145  0.93982179  0.20317533     0.10400
H1205       H  0.95379039  0.48663521  0.24068594     0.10100
H1206       H  0.98690397  0.52148103  0.21618088     0.11200
H1207       H  0.88302354  0.91795596  0.23395286     0.11300
H1208       H  0.91282316  0.97479572  0.25925732     0.13200
H1209       H  0.86855941  0.95891993  0.28300014     0.09700
H1210       H  0.83482010  0.92119233  0.30631873     0.11800
H1211       H  0.85061846  0.85203327  0.28265948     0.08400
H1212       H  0.88368653  0.88934452  0.25930592     0.11200
C1213       C  0.85327059  0.57026720  0.03703369    -0.03400
C1214       C  0.87621283  0.59768591  0.04601807    -0.06000
C1215       C  0.89553963  0.59647086  0.05934757    -0.21100
C1216       C  0.89225898  0.56785985  0.06405923     0.24600
C1217       C  0.87007456  0.54059583  0.05458458    -0.18700
C1218       C  0.85072673  0.54181006  0.04127985    -0.08600
C1219       C  0.91238347  0.56734865  0.07881493    -0.18900
C1220       C  0.90338188  0.54185751  0.08906408    -0.23700
C1221       C  0.92210594  0.54140395  0.10462389     0.26700
C1222       C  0.90602080  0.51937706  0.11833229    -0.20500
C1223       C  0.92244881  0.51789768  0.13321226    -0.10100
C1224       C  0.95559864  0.53819920  0.13466326    -0.10700
C1225       C  0.97187238  0.55997686  0.12078974    -0.03600
C1226       C  0.95532659  0.56161259  0.10591960    -0.18700
H1227       H  0.87895862  0.62002509  0.04291076     0.10400
H1228       H  0.91270119  0.61788509  0.06625206     0.10400
H1229       H  0.86769207  0.51832165  0.05729991     0.10100
H1230       H  0.83371999  0.52041017  0.03431712     0.11200
H1231       H  0.93408125  0.58926684  0.08212899     0.11300
H1232       H  0.88021955  0.52087244  0.08681675     0.13200
H1233       H  0.88049110  0.50337903  0.11762763     0.09700
H1234       H  0.90908338  0.50072864  0.14356640     0.11800
H1235       H  0.99739140  0.57591063  0.12145158     0.08400
H1236       H  0.96866967  0.57834349  0.09539416     0.11200
C1237       C  0.62751570  0.62169676  0.19929428    -0.03400
C1238       C  0.66073954  0.63588381  0.19997107    -0.06000
C1239       C  0.67790653  0.65265241  0.21524564    -0.21100
C1240       C  0.66244506  0.65595431  0.23015003     0.24600
C1241       C  0.62910901  0.64104977  0.22970424    -0.18700
C1242       C  0.61189188  0.62416720  0.21444015    -0.08600
C1243       C  0.68190990  0.67497795  0.24583816    -0.18900
C1244       C  0.67238409  0.68890874  0.25757378    -0.23700
C1245       C  0.69291549  0.71034418  0.27223006     0.26700
C1246       C  0.68701235  0.73311790  0.27853484    -0.20500
C1247       C  0.70623667  0.75452736  0.29182187    -0.11300
C1248       C  0.73168839  0.75346254  0.29931201    -0.10700
C1249       C  0.73713160  0.73009838  0.29345288    -0.03600
C1250       C  0.71790423  0.70867447  0.28003938    -0.18700
H1251       H  0.67360175  0.63431112  0.18863021     0.10400
H1252       H  0.70351246  0.66360343  0.21527614     0.10400
H1253       H  0.61612465  0.64210677  0.24112540     0.10100
H1254       H  0.58633456  0.61335200  0.21445188     0.11200
H1255       H  0.70584961  0.67956095  0.24687704     0.11300
H1256       H  0.64962471  0.68674515  0.25554237     0.13200
H1257       H  0.66777309  0.73476754  0.27289805     0.09700
H1258       H  0.70129115  0.77212664  0.29612485     0.11800
H1259       H  0.75638231  0.72854257  0.29912647     0.08400
H1260       H  0.72255686  0.69080278  0.27594088     0.11200
C1261       C  0.73738178  0.57500504  0.03679381    -0.03400
C1262       C  0.70978325  0.54711691  0.04221863    -0.06000
C1263       C  0.68985740  0.54763740  0.05540944    -0.21100
C1264       C  0.69715334  0.57593964  0.06357788     0.24600
C1265       C  0.72451309  0.60395263  0.05782196    -0.18700
C1266       C  0.74439659  0.60342802  0.04462142    -0.08600
C1267       C  0.67560377  0.57522619  0.07788819    -0.18900
C1268       C  0.68458957  0.59830483  0.09012558    -0.23700
C1269       C  0.66430381  0.59666118  0.10539335     0.26700
C1270       C  0.67934107  0.61348652  0.12113319    -0.20500
C1271       C  0.66161775  0.61248695  0.13602400    -0.10100
C1272       C  0.62818902  0.59490176  0.13551866    -0.10700
C1273       C  0.61298012  0.57861666  0.11955548    -0.03600
C1274       C  0.63085319  0.57942616  0.10462910    -0.18700
H1275       H  0.70361048  0.52487947  0.03629202     0.10400
H1276       H  0.66881725  0.52573854  0.05941014     0.10400
H1277       H  0.73059297  0.62645985  0.06323422     0.10100
H1278       H  0.76533463  0.62531646  0.04056503     0.11200
H1279       H  0.65226767  0.55400275  0.07909426     0.11300
H1280       H  0.70881296  0.61829917  0.09001028     0.13200
H1281       H  0.70506356  0.62715023  0.12203673     0.09700
H1282       H  0.67426150  0.62549043  0.14798859     0.11800
H1283       H  0.58730083  0.56504548  0.11863738     0.08400
H1284       H  0.61846823  0.56685553  0.09250759     0.11200
C1285       C  0.49653393  0.60273975  0.79771515    -0.03400
C1286       C  0.97531655  0.61056575  0.79566795    -0.06000
C1287       C  0.97401560  0.62710031  0.78088338    -0.21100
C1288       C  0.49437762  0.63733541  0.76809094     0.24600
C1289       C  0.51725237  0.62877540  0.76875691    -0.18700
C1290       C  0.51830146  0.61170858  0.78340484    -0.08600
C1291       C  0.99553931  0.65686753  0.75224669    -0.18900
C1292       C  0.51933049  0.67794580  0.74388466    -0.23700
C1293       C  0.52035036  0.70064691  0.73046417     0.26700
C1294       C  0.55028811  0.72514699  0.72472272    -0.20500
C1295       C  0.55312520  0.74753245  0.71246017    -0.10100
C1296       C  0.52604100  0.74610928  0.70549285    -0.10700
C1297       C  0.99706157  0.72049070  0.70977401    -0.03600
C1298       C  0.99451152  0.69809579  0.72212855    -0.18700
H1299       H  0.95783686  0.60377760  0.80626139     0.10400
H1300       H  0.95566509  0.63266345  0.78051167     0.10400
H1301       H  0.53440517  0.63518565  0.75803597     0.10100
H1302       H  0.53661399  0.60612544  0.78367878     0.11200
H1303       H  0.97324747  0.65569727  0.75034554     0.11300
H1304       H  0.54182518  0.68004757  0.74686934     0.13200
H1305       H  0.57176644  0.72719328  0.72987499     0.09700
H1306       H  0.57670195  0.76610675  0.70847653     0.11800
H1307       H  0.97560149  0.71844149  0.70461915     0.08400
H1308       H  0.97101617  0.67932339  0.72594211     0.11200
C1309       C  0.99598153  0.98417702  0.46901822    -0.03400
C1310       C  0.00434507  0.00124513  0.45282946    -0.06000
C1311       C  0.98926143  0.98664888  0.43664310    -0.21100
C1312       C  0.96562722  0.95464247  0.43619877     0.24600
C1313       C  0.95800110  0.93727055  0.45228286    -0.18700
C1314       C  0.97313532  0.95186894  0.46848742    -0.08600
C1315       C  0.94733567  0.94104698  0.41922812    -0.18900
C1316       C  0.93073232  0.91014198  0.41543160    -0.23700
C1317       C  0.90901114  0.89646070  0.39966064     0.26700
C1318       C  0.90158574  0.86724512  0.39281161    -0.20500
C1319       C  0.87880990  0.85229083  0.37915940    -0.10100
C1320       C  0.86263470  0.86608505  0.37231899    -0.10700
C1321       C  0.87054956  0.89562413  0.37889163    -0.03600
C1322       C  0.89343517  0.91065139  0.39239650    -0.18700
H1323       H  0.52133863  0.52714787  0.45281277     0.10400
H1324       H  0.99554531  0.00059972  0.42448205     0.10400
H1325       H  0.93935596  0.91274811  0.45263058     0.10100
H1326       H  0.96597962  0.93806649  0.48072368     0.11200
H1327       H  0.94748405  0.95729957  0.40954521     0.11300
H1328       H  0.93292982  0.89408282  0.42416574     0.13200
H1329       H  0.91308211  0.85572121  0.39826433     0.09700
H1330       H  0.87318674  0.82954862  0.37434652     0.11800
H1331       H  0.85845646  0.90684624  0.37389807     0.08400
H1332       H  0.89779804  0.93271618  0.39762097     0.11200
C1333       C  0.50412399  0.97443425  0.53484977    -0.03400
C1334       C  0.50414586  0.98537981  0.55233249    -0.06000
C1335       C  0.50199980  0.96765533  0.56749956    -0.21100
C1336       C  0.50065014  0.93916013  0.56545813     0.24600
C1337       C  0.49988064  0.92795259  0.54796880    -0.18700
C1338       C  0.50144412  0.94528919  0.53288706    -0.08600
C1339       C  0.50037480  0.92155135  0.58164335    -0.18900
C1340       C  0.51541952  0.90572429  0.58178019    -0.23700
C1341       C  0.51782302  0.88963700  0.59790928     0.26700
C1342       C  0.54538784  0.88872240  0.60013592    -0.20500
C1343       C  0.54880955  0.87377257  0.61500046    -0.10100
C1344       C  0.52436322  0.85860861  0.62779010    -0.10700
C1345       C  0.49627405  0.85866937  0.62536473    -0.03600
C1346       C  0.49312964  0.87435566  0.61061172    -0.18700
H1347       H  0.50581307  0.00756251  0.55427106     0.10400
H1348       H  0.50226742  0.97660077  0.58084521     0.10400
H1349       H  0.49796660  0.90569101  0.54589286     0.10100
H1350       H  0.50124612  0.93608994  0.51963207     0.11200
H1351       H  0.48978536  0.92360879  0.59398408     0.11300
H1352       H  0.52884040  0.90666145  0.56994698     0.13200
H1353       H  0.56456683  0.89997666  0.59043477     0.09700
H1354       H  0.57056090  0.87377477  0.61636265     0.11800
H1355       H  0.98078117  0.84822570  0.63246110     0.08400
H1356       H  0.47127118  0.87403984  0.60897987     0.11200
C1357       C  0.55931365  0.88096523  0.70687139    -0.03400
C1358       C  0.58645958  0.91130381  0.70584354    -0.06000
C1359       C  0.59107600  0.93440305  0.71832847    -0.21100
C1360       C  0.56916312  0.92727835  0.73233159     0.24600
C1361       C  0.54226993  0.89675974  0.73345245    -0.18700
C1362       C  0.53730980  0.87396805  0.72077970    -0.08600
C1363       C  0.57394118  0.95212316  0.74524234    -0.18900
C1364       C  0.56598023  0.94597255  0.76276820    -0.23700
C1365       C  0.57011579  0.97003434  0.77602269     0.26700
C1366       C  0.57893103  0.96826351  0.79371946    -0.20500
C1367       C  0.58078303  0.98896458  0.80697559    -0.10100
C1368       C  0.57287780  0.01137919  0.80298348    -0.10700
C1369       C  0.56110725  0.51067713  0.78490145    -0.03600
C1370       C  0.56314396  0.99303609  0.77176802    -0.18700
H1371       H  0.60361703  0.91735031  0.69514134     0.10400
H1372       H  0.61184802  0.95781662  0.71711598     0.10400
H1373       H  0.52458584  0.89068754  0.74383314     0.10100
H1374       H  0.51613040  0.85078896  0.72183976     0.11200
H1375       H  0.58545603  0.97610588  0.74042858     0.11300
H1376       H  0.55756412  0.92261056  0.76789176     0.13200
H1377       H  0.58416586  0.95057888  0.79733633     0.09700
H1378       H  0.58728041  0.98658359  0.82055280     0.11800
H1379       H  0.55525506  0.52801245  0.78156159     0.08400
H1380       H  0.55570128  0.99452141  0.75827005     0.11200
C1381       C  0.59819862  0.54773523  0.86466215    -0.03400
C1382       C  0.58565370  0.54780197  0.88166414    -0.06000
C1383       C  0.60204088  0.54948246  0.89747916    -0.21100
C1384       C  0.63167509  0.55212726  0.89656285     0.24600
C1385       C  0.64423850  0.55222542  0.87953484    -0.18700
C1386       C  0.62758043  0.54983359  0.86379192    -0.08600
C1387       C  0.64859422  0.55342928  0.91343068    -0.18900
C1388       C  0.68053800  0.57046582  0.91466917    -0.23700
C1389       C  0.69857898  0.57108878  0.93084514     0.26700
C1390       C  0.72856064  0.59792064  0.93418563    -0.20500
C1391       C  0.74752440  0.59857799  0.94835378    -0.10100
C1392       C  0.73723594  0.57208393  0.95923218    -0.10700
C1393       C  0.70710885  0.54522127  0.95602223    -0.03600
C1394       C  0.68782545  0.54477556  0.94203219    -0.18700
H1395       H  0.56290204  0.54587993  0.88273252     0.10400
H1396       H  0.59170624  0.54899304  0.91044492     0.10400
H1397       H  0.66661513  0.55341227  0.87835823     0.10100
H1398       H  0.63779941  0.54976723  0.85089004     0.11200
H1399       H  0.63445653  0.54094026  0.92517290     0.11300
H1400       H  0.69425513  0.58536804  0.90343595     0.13200
H1401       H  0.73748016  0.61838768  0.92568268     0.09700
H1402       H  0.77063766  0.61956046  0.95048030     0.11800
H1403       H  0.69857671  0.52448240  0.96422630     0.08400
H1404       H  0.66511700  0.52348906  0.93958639     0.11200
C1405       C  0.58967480  0.64810189  0.47037612    -0.03400
C1406       C  0.58693660  0.63214892  0.45420634    -0.06000
C1407       C  0.60206557  0.64873077  0.43847285    -0.21100
C1408       C  0.62014825  0.68166124  0.43840137     0.24600
C1409       C  0.62207067  0.69769896  0.45440705    -0.18700
C1410       C  0.60693992  0.68110691  0.47017293    -0.08600
C1411       C  0.63926968  0.69806519  0.42203899    -0.18900
C1412       C  0.65185702  0.72876201  0.41836733    -0.23700
C1413       C  0.67490268  0.74507284  0.40334332     0.26700
C1414       C  0.67792398  0.77187990  0.39530370    -0.20500
C1415       C  0.70065679  0.78823434  0.38173164    -0.10100
C1416       C  0.72106624  0.77827597  0.37617464    -0.10700
C1417       C  0.71816603  0.75171493  0.38439171    -0.03600
C1418       C  0.69551991  0.73540491  0.39776922    -0.18700
H1419       H  0.57373552  0.60678602  0.45377187     0.10400
H1420       H  0.60025574  0.63571721  0.42638622     0.10400
H1421       H  0.63632853  0.72301191  0.45507809     0.10100
H1422       H  0.60964276  0.69422338  0.48235600     0.11200
H1423       H  0.64352865  0.68403390  0.41267365     0.11300
H1424       H  0.64540317  0.74246558  0.42656444     0.13200
H1425       H  0.66265035  0.78011841  0.39951406     0.09700
H1426       H  0.70238166  0.80867520  0.37568908     0.11800
H1427       H  0.73364172  0.74351730  0.38055918     0.08400
H1428       H  0.69488657  0.71567322  0.40405350     0.11200
C1429       C  0.55001682  0.76407021  0.62888289    -0.03400
C1430       C  0.52496585  0.74837451  0.61651252    -0.06000
C1431       C  0.52723381  0.73182494  0.60211238    -0.21100
C1432       C  0.55424700  0.72994208  0.59994372     0.24600
C1433       C  0.57937569  0.74535985  0.61241061    -0.18700
C1434       C  0.57734942  0.76257160  0.62672786    -0.08600
C1435       C  0.55575814  0.71329639  0.58383348    -0.18900
C1436       C  0.57165674  0.69838809  0.58308140    -0.23700
C1437       C  0.57107989  0.68127505  0.56656365     0.26700
C1438       C  0.57180517  0.65381369  0.56804020    -0.20500
C1439       C  0.57006159  0.63684277  0.55257292    -0.10100
C1440       C  0.56840168  0.64756074  0.53535684    -0.10700
C1441       C  0.56841275  0.67541296  0.53390852    -0.03600
C1442       C  0.56969228  0.69205159  0.54930606    -0.18700
H1443       H  0.50373299  0.74934396  0.61777306     0.10400
H1444       H  0.50772436  0.72038814  0.59260737     0.10400
H1445       H  0.60079753  0.74484176  0.61085140     0.10100
H1446       H  0.59697938  0.77455130  0.63611074     0.11200
H1447       H  0.54128617  0.71161933  0.57237190     0.11300
H1448       H  0.58349931  0.69699931  0.59503766     0.13200
H1449       H  0.57312401  0.64519552  0.58117892     0.09700
H1450       H  0.57036683  0.61557557  0.55405611     0.11800
H1451       H  0.56713937  0.68425208  0.52083572     0.08400
H1452       H  0.56997161  0.71357935  0.54762648     0.11200
loop_ 
_geom_bond_atom_site_label_1 
_geom_bond_atom_site_label_2 
_geom_bond_distance 
_geom_bond_site_symmetry_2 
_ccdc_geom_bond_type 
C1            N2   1.361       .  A
C1            N6   1.362       .  A
C1          C351   1.480       .  S
N2            C3   1.358       .  A
C3            N4   1.359       .  A
C3          C316   1.491       .  S
N4            C5   1.361       .  A
C5            N6   1.360       .  A
C5           C17   1.473       .  S
C7            N8   1.359       .  A
C7           N12   1.361       .  A
C7          C642   1.484       .  S
N8            C9   1.357       .  A
C9           N10   1.360       .  A
C9          C292   1.483       .  S
N10          C11   1.362       .  A
C11          N12   1.361       .  A
C11          C61   1.472       .  S
C13          N14   1.361   1_455  A
C13         N381   1.365       .  A
C13         C244   1.486       .  S
N14          C15   1.357   1_655  A
C15         N379   1.355       .  A
C15         C946   1.483   1_455  S
N16          C17   1.357       .  A
N16         C378   1.356       .  A
C17          N18   1.364       .  A
N18         C376   1.365   1_545  A
In19         O21   2.199       .  S
In19         O30   2.189       .  S
In19         O24   2.232       .  S
In19         O26   2.240       .  S
In19         O28   2.204       .  S
In19         O31   2.203       .  S
In19        O748   2.249       .  S
In19        O753   2.249       .  S
C20         C268   1.479       .  S
C20          O26   1.275       .  A
C20          O28   1.270       .  A
O21          C29   1.270       .  A
O22        In745   2.241       .  S
O22         C755   1.277       .  A
C23         C340   1.474       .  S
C23          O30   1.271       .  A
C23          O24   1.277       .  A
C25         C207   1.486       .  S
C25          O31   1.270       .  A
C25         O753   1.277       .  A
O27        In745   2.241       .  S
O27         C751   1.277       .  A
C29         C255   1.482       .  S
C29         O748   1.277       .  A
C32          N33   1.362       .  A
C32          N37   1.358       .  A
C32         C183   1.488       .  S
N33          C34   1.362       .  A
C34          N35   1.360       .  A
C34          C42   1.472       .  S
N35          C36   1.360       .  A
C36          N37   1.357       .  A
C36         C148   1.486       .  S
C38          N39   1.357       .  A
C38          N43   1.360       .  A
C38         C135   1.487       .  S
N39          C40   1.357       .  A
C40         N767   1.362       .  A
C40         C100   1.486   1_545  S
N41          C42   1.363       .  A
N41         C766   1.361   1_455  A
C42         N769   1.362       .  A
N43         C768   1.361       .  A
In44         O46   2.204       .  S
In44         O47   2.243       .  S
In44         O55   2.199       .  S
In44         O49   2.260       .  S
In44         O51   2.239       .  S
In44         O52   2.242       .  S
In44         O53   2.208       .  S
In44         O56   2.202       .  S
C45         C111   1.479       .  S
C45          O51   1.275       .  A
C45          O53   1.269       .  A
O46          C54   1.268       .  A
O47          C54   1.275       .  A
C48         C327   1.486       .  S
C48          O55   1.268       .  A
C48          O49   1.275       .  A
C50         C159   1.481       .  S
C50          O52   1.275       .  A
C50          O56   1.269       .  A
C54         C231   1.481       .  S
C57          N62   1.363   1_655  A
C57         N784   1.360       .  A
C57         C196   1.491       .  S
N58          C59   1.359       .  A
N58         C783   1.360       .  A
C59         N786   1.358       .  A
C59          C76   1.481       .  S
N60          C61   1.359       .  A
N60         C785   1.358   1_455  A
C61          N62   1.362       .  A
In63         O65   2.205   1_556  S
In63         O66   2.210   1_556  S
In63         O74   2.213   1_556  S
In63         O68   2.217   1_556  S
In63         O70   2.221       .  S
In63         O71   2.215       .  S
In63         O72   2.210       .  S
In63         O75   2.200       .  S
C64         C303   1.482       .  S
C64          O70   1.276       .  A
C64          O72   1.276       .  A
O65          C73   1.275       .  A
O66          C73   1.277       .  A
C67         C124   1.482       .  S
C67          O74   1.275       .  A
C67          O68   1.277       .  A
C69          C87   1.478       .  S
C69          O71   1.277       .  A
C69          O75   1.276       .  A
C73         C172   1.479       .  S
C76          C77   1.404       .  A
C76          C81   1.407       .  A
C77          C78   1.395       .  A
C77          H90   1.083       .  S
C78          C79   1.401       .  A
C78          H91   1.084       .  S
C79          C80   1.406       .  A
C79          C82   1.481       .  S
C80          C81   1.403       .  A
C80          H92   1.083       .  S
C81          H93   1.083       .  S
C82          C83   1.346       .  D
C82          H94   1.086       .  S
C83          C84   1.488       .  S
C83          H95   1.087       .  S
C84          C85   1.405       .  A
C84          C89   1.407       .  A
C85          C86   1.401       .  A
C85          H96   1.083       .  S
C86          C87   1.405       .  A
C86          H97   1.083       .  S
C87          C88   1.403       .  A
C88          C89   1.397       .  A
C88          H98   1.083       .  S
C89          H99   1.082       .  S
C100        C105   1.407   1_565  A
C100        C464   1.407       .  A
C101        C102   1.396       .  A
C101        C463   1.407       .  A
C101        H114   1.083       .  S
C102        C103   1.401       .  A
C102        H115   1.084       .  S
C103        C104   1.408       .  A
C103        C106   1.485       .  S
C104        C468   1.404       .  A
C104        H479   1.083       .  S
C105        C467   1.404   1_545  A
C105        H117   1.083       .  S
C106        C107   1.346       .  D
C106        H118   1.087       .  S
C107        C108   1.486       .  S
C107        H119   1.087       .  S
C108        C109   1.404       .  A
C108        C113   1.406       .  A
C109        C110   1.402       .  A
C109        H120   1.083       .  S
C110        C111   1.404       .  A
C110        H121   1.083       .  S
C111        C112   1.406       .  A
C112        C113   1.398       .  A
C112        H122   1.083       .  S
C113        H123   1.082       .  S
H116        C467   1.083       .  S
C124        C125   1.406       .  A
C124        C129   1.404       .  A
C125        C126   1.400       .  A
C125        H138   1.083       .  S
C126        C127   1.404       .  A
C126        H139   1.084       .  S
C127        C128   1.408       .  A
C127        C130   1.490       .  S
C128        C129   1.400       .  A
C128        H140   1.081       .  S
C129        H141   1.083       .  S
C130        C131   1.348       .  D
C130        H142   1.085       .  S
C131        C132   1.489       .  S
C131        H143   1.085       .  S
C132        C133   1.402       .  A
C132        C137   1.409       .  A
C133        C134   1.397       .  A
C133        H144   1.084       .  S
C134        C135   1.407       .  A
C134        H145   1.082   1_545  S
C135        C136   1.407       .  A
C136        C137   1.403       .  A
C136        H146   1.083       .  S
C137        H147   1.081       .  S
C148        C149   1.408       .  A
C148        C153   1.406       .  A
C149        C150   1.398       .  A
C149        H162   1.082       .  S
C150        C151   1.403       .  A
C150        H163   1.084       .  S
C151        C152   1.409       .  A
C151        C154   1.489       .  S
C152        C153   1.400       .  A
C152        H164   1.081       .  S
C153        H165   1.083       .  S
C154        C155   1.347       .  D
C154        H166   1.085       .  S
C155        C156   1.488       .  S
C155        H167   1.085       .  S
C156        C157   1.402       .  A
C156        C161   1.410       .  A
C157        C158   1.396       .  A
C157        H168   1.084       .  S
C158        C159   1.405       .  A
C158        H169   1.083       .  S
C159        C160   1.404       .  A
C160        C161   1.403       .  A
C160        H170   1.083       .  S
C161        H171   1.082       .  S
C172        C173   1.405       .  A
C172        C177   1.403       .  A
C173        C174   1.399       .  A
C173        H186   1.083       .  S
C174        C175   1.404       .  A
C174        H187   1.084       .  S
C175        C176   1.410       .  A
C175        C178   1.492       .  S
C176        C177   1.399       .  A
C176        H188   1.081       .  S
C177        H189   1.083       .  S
C178        C179   1.347       .  D
C178        H190   1.086       .  S
C179        C180   1.487       .  S
C179        H191   1.085       .  S
C180        C181   1.401       .  A
C180        C185   1.409       .  A
C181        C182   1.395       .  A
C181        H192   1.085       .  S
C182        C183   1.407       .  A
C182        H193   1.082       .  S
C183        C184   1.408       .  A
C184        C185   1.404       .  A
C184        H194   1.083       .  S
C185        H195   1.082       .  S
C196        C201   1.407   1_655  A
C196        C923   1.408       .  A
C197        C198   1.399       .  A
C197        C922   1.408       .  A
C197        H210   1.083       .  S
C198        C925   1.403       .  A
C198        H211   1.084       .  S
C199        C200   1.410   1_655  A
C199        C924   1.403       .  A
C199        C928   1.495       .  S
C200        C201   1.404       .  A
C200        H212   1.081       .  S
C201        H213   1.083       .  S
C202        C925   1.494       .  S
C202        C929   1.349       .  D
C202        H214   1.084       .  S
C203        C204   1.496       .  S
C203        C928   1.350   1_455  D
C203        H215   1.086       .  S
C204        C205   1.404       .  A
C204        C935   1.413   1_455  A
C205        C206   1.396       .  A
C205        H216   1.084       .  S
C206        C207   1.405       .  A
C206        H217   1.083       .  S
C207        C934   1.406   1_455  A
C208        C209   1.406       .  A
C208        C933   1.406       .  A
C208        H218   1.083       .  S
C209        C930   1.412       .  A
C209        H219   1.080       .  S
C220        C741   1.484       .  S
C220        C221   1.406       .  A
C220        C225   1.406       .  A
C221        C222   1.398       .  A
C221       H1323   1.083       .  S
C222        C223   1.403       .  A
C222        H235   1.083       .  S
C223        C224   1.408       .  A
C223        C226   1.488       .  S
C224        C225   1.400       .  A
C224        H236   1.082       .  S
C225        H237   1.083       .  S
C226        C227   1.348       .  D
C226        H238   1.086       .  S
C227        C228   1.488       .  S
C227        H239   1.085       .  S
C228        C229   1.405       .  A
C228        C233   1.407       .  A
C229        C230   1.402       .  A
C229        H240   1.083       .  S
C230        C231   1.404       .  A
C230        H241   1.083       .  S
C231        C232   1.406       .  A
C232        C233   1.397       .  A
C232        H242   1.083       .  S
C233        H243   1.082       .  S
H234       C1310   1.083       .  S
C244        C245   1.406       .  A
C244        C249   1.406       .  A
C245        C246   1.405       .  A
C245        H258   1.083       .  S
C246        C247   1.406   1_455  A
C246        H259   1.083       .  S
C247        C248   1.405       .  A
C247        C250   1.489       .  S
C248        C249   1.396   1_655  A
C248        H260   1.082       .  S
C249        H261   1.083       .  S
C250        C251   1.348   1_655  D
C250        H262   1.086       .  S
C251        C252   1.485       .  S
C251        H263   1.087       .  S
C252        C253   1.401       .  A
C252        C257   1.408   1_455  A
C253        C254   1.395       .  A
C253        H264   1.083       .  S
C254        C255   1.405       .  A
C254        H265   1.083       .  S
C255        C256   1.406   1_455  A
C256        C257   1.406       .  A
C256        H992   1.083       .  S
C257        H267   1.082       .  S
H266        C982   1.083       .  S
C268        C269   1.405       .  A
C268        C273   1.404       .  A
C269        C270   1.404       .  A
C269        H282   1.083       .  S
C270        C271   1.405       .  A
C270        H283   1.083       .  S
C271        C272   1.406       .  A
C271        C274   1.488       .  S
C272        C273   1.397       .  A
C272        H284   1.082       .  S
C273        H285   1.083       .  S
C274        C275   1.346       .  D
C274        H286   1.087       .  S
C275        C276   1.484       .  S
C275        H287   1.087       .  S
C276        C277   1.401       .  A
C276        C281   1.407       .  A
C277        C278   1.396       .  A
C277        H288   1.084       .  S
C278        C279   1.407       .  A
C278        H289   1.083       .  S
C279        C370   1.485       .  S
C279        C643   1.407       .  A
C280        C642   1.407       .  A
C280        C644   1.404   1_545  A
C280        H290   1.083       .  S
C281        C643   1.404       .  A
C281        H291   1.083       .  S
C292        C293   1.406       .  A
C292        C297   1.405       .  A
C293        C294   1.404       .  A
C293        H306   1.083       .  S
C294        C295   1.405       .  A
C294        H307   1.083       .  S
C295        C296   1.406       .  A
C295        C298   1.488       .  S
C296        C297   1.398       .  A
C296        H308   1.082       .  S
C297        H309   1.083       .  S
C298        C299   1.347       .  D
C298        H310   1.086       .  S
C299        C300   1.487       .  S
C299        H311   1.087       .  S
C300        C301   1.403       .  A
C300        C305   1.408       .  A
C301        C302   1.398       .  A
C301        H312   1.083       .  S
C302        C303   1.404       .  A
C302        H313   1.083       .  S
C303        C304   1.406       .  A
C304        C305   1.403       .  A
C304        H314   1.083       .  S
C305        H315   1.082       .  S
C316        C317   1.406       .  A
C316        C321   1.409       .  A
C317        C318   1.400       .  A
C317        H330   1.083       .  S
C318        C319   1.405       .  A
C318        H331   1.083       .  S
C319        C320   1.407       .  A
C319        C322   1.492       .  S
C320        C321   1.402       .  A
C320        H332   1.082       .  S
C321        H333   1.083       .  S
C322        C323   1.352       .  D
C322        H334   1.086       .  S
C323        C324   1.494       .  S
C323        H335   1.085       .  S
C324        C325   1.408       .  A
C324        C329   1.405       .  A
C325        C326   1.408       .  A
C325        H336   1.083       .  S
C326        C327   1.406       .  A
C326        H337   1.083       .  S
C327        C328   1.405       .  A
C328        C329   1.395       .  A
C328        H338   1.083       .  S
C329        H339   1.082       .  S
C340        C341   1.403       .  A
C340        C345   1.405       .  A
C341        C342   1.392       .  A
C341        H354   1.083       .  S
C342        C343   1.400       .  A
C342        H355   1.083       .  S
C343        C344   1.408       .  A
C343        C346   1.481       .  S
C344        C345   1.404       .  A
C344        H356   1.082       .  S
C345        H357   1.083       .  S
C346        C347   1.345       .  D
C346        H358   1.086       .  S
C347        C348   1.486       .  S
C347        H359   1.086       .  S
C348        C349   1.404       .  A
C348        C353   1.406       .  A
C349        C350   1.402       .  A
C349        H360   1.083       .  S
C350        C351   1.406       .  A
C350        H361   1.083       .  S
C351        C352   1.404       .  A
C352        C353   1.395       .  A
C352        H362   1.083       .  S
C353        H363   1.082       .  S
C364        N365   1.361       .  A
C364        N369   1.361       .  A
C364        C714   1.478       .  S
N365        C366   1.358       .  A
C366        N367   1.359       .  A
C366        C679   1.492       .  S
N367        C368   1.361       .  A
C368        N369   1.359       .  A
C368        C380   1.474       .  S
C370        N371   1.359       .  A
C370        N375   1.362       .  A
N371        C372   1.358       .  A
C372        N373   1.359       .  A
C372        C655   1.482       .  S
N373        C374   1.361       .  A
C374        N375   1.361       .  A
C374        C424   1.471       .  S
C376        N377   1.361       .  A
C376        C607   1.484       .  S
N377        C378   1.357   1_565  A
C378       C1309   1.484   1_445  S
N379        C380   1.356       .  A
C380        N381   1.364       .  A
In382       O384   2.199       .  S
In382      O1111   2.240       .  S
In382       O393   2.189       .  S
In382       O387   2.224       .  S
In382       O389   2.233       .  S
In382      O1116   2.240       .  S
In382       O391   2.203       .  S
In382       O394   2.201       .  S
C383        C631   1.479       .  S
C383        O389   1.275       .  A
C383        O391   1.272       .  A
O384        C392   1.272       .  A
O385      In1108   2.248       .  S
O385       C1118   1.277       .  A
C386        C703   1.475       .  S
C386        O393   1.273       .  A
C386        O387   1.277       .  A
C388        C570   1.485       .  S
C388       O1116   1.277       .  A
C388        O394   1.272       .  A
O390      In1108   2.247       .  S
O390       C1114   1.277       .  A
C392        C618   1.481       .  S
C392       O1111   1.278       .  A
C395        N396   1.362       .  A
C395        N400   1.358       .  A
C395        C546   1.489       .  S
N396        C397   1.363       .  A
C397        N398   1.360       .  A
C397        C405   1.472       .  S
N398        C399   1.360       .  A
C399        N400   1.357       .  A
C399        C511   1.486       .  S
C401        N402   1.357       .  A
C401        N406   1.361       .  A
C401        C498   1.486       .  S
N402        C403   1.357       .  A
C403       N1130   1.361       .  A
C403        C463   1.485       .  S
N404       C1129   1.362   1_455  A
N404        C405   1.363       .  A
C405       N1132   1.361       .  A
N406       C1131   1.362       .  A
In407       O409   2.204       .  S
In407       O410   2.243       .  S
In407       O418   2.199       .  S
In407       O412   2.262       .  S
In407       O414   2.239       .  S
In407       O415   2.241       .  S
In407       O416   2.209       .  S
In407       O419   2.201       .  S
C408        C474   1.479       .  S
C408        O414   1.275       .  A
C408        O416   1.268       .  A
O409        C417   1.268       .  A
O410        C417   1.275       .  A
C411        C690   1.486       .  S
C411        O418   1.268       .  A
C411        O412   1.275       .  A
C413        C522   1.480       .  S
C413        O415   1.275       .  A
C413        O419   1.269       .  A
C417        C594   1.480       .  S
C420       N1147   1.360   1_455  A
C420        N425   1.363       .  A
C420        C559   1.491   1_455  S
N421       C1146   1.360       .  A
N421        C422   1.359       .  A
C422       N1149   1.358       .  A
C422        C439   1.481       .  S
N423       C1148   1.358   1_455  A
N423        C424   1.359       .  A
C424        N425   1.362       .  A
In426       O428   2.212   1_556  S
In426       O429   2.205   1_556  S
In426       O437   2.216   1_556  S
In426       O431   2.211   1_556  S
In426       O433   2.213       .  S
In426       O434   2.210       .  S
In426       O435   2.214       .  S
In426       O438   2.206       .  S
C427        C666   1.481       .  S
C427        O433   1.276       .  A
C427        O435   1.277       .  A
O428        C436   1.276       .  A
O429        C436   1.276       .  A
C430        C487   1.482       .  S
C430        O437   1.276       .  A
C430        O431   1.276       .  A
C432        C450   1.478       .  S
C432        O434   1.276       .  A
C432        O438   1.277       .  A
C436        C535   1.480       .  S
C439        C440   1.404       .  A
C439        C444   1.407       .  A
C440        C441   1.396       .  A
C440        H453   1.083       .  S
C441        C442   1.401       .  A
C441        H454   1.084       .  S
C442        C443   1.406       .  A
C442        C445   1.481       .  S
C443        C444   1.402       .  A
C443        H455   1.083       .  S
C444        H456   1.083       .  S
C445        C446   1.346       .  D
C445        H457   1.086       .  S
C446        C447   1.488       .  S
C446        H458   1.087       .  S
C447        C448   1.404       .  A
C447        C452   1.408       .  A
C448        C449   1.400       .  A
C448        H459   1.083       .  S
C449        C450   1.405       .  A
C449        H460   1.083       .  S
C450        C451   1.403       .  A
C451        C452   1.398       .  A
C451        H461   1.083       .  S
C452        H462   1.082       .  S
C463        C468   1.406       .  A
C464        C465   1.396       .  A
C464        H477   1.083       .  S
C465        C466   1.401       .  A
C465        H478   1.084       .  S
C466        C467   1.408       .  A
C466        C469   1.485       .  S
C468        H480   1.083       .  S
C469        C470   1.346       .  D
C469        H481   1.087       .  S
C470        C471   1.487       .  S
C470        H482   1.087       .  S
C471        C472   1.404       .  A
C471        C476   1.406       .  A
C472        C473   1.402       .  A
C472        H483   1.083       .  S
C473        C474   1.404       .  A
C473        H484   1.083       .  S
C474        C475   1.406       .  A
C475        C476   1.399       .  A
C475        H485   1.083       .  S
C476        H486   1.083       .  S
C487        C488   1.405       .  A
C487        C492   1.404       .  A
C488        C489   1.401       .  A
C488        H501   1.083       .  S
C489        C490   1.404       .  A
C489        H502   1.083       .  S
C490        C491   1.408       .  A
C490        C493   1.490       .  S
C491        C492   1.399       .  A
C491        H503   1.081       .  S
C492        H504   1.083       .  S
C493        C494   1.348       .  D
C493        H505   1.085       .  S
C494        C495   1.488       .  S
C494        H506   1.085       .  S
C495        C496   1.402       .  A
C495        C500   1.409       .  A
C496        C497   1.396       .  A
C496        H507   1.084       .  S
C497        C498   1.407       .  A
C497        H508   1.082       .  S
C498        C499   1.406       .  A
C499        C500   1.403       .  A
C499        H509   1.083       .  S
C500        H510   1.081       .  S
C511        C512   1.408       .  A
C511        C516   1.406       .  A
C512        C513   1.398       .  A
C512        H525   1.082       .  S
C513        C514   1.403       .  A
C513        H526   1.084       .  S
C514        C515   1.409       .  A
C514        C517   1.489       .  S
C515        C516   1.400       .  A
C515        H527   1.081       .  S
C516        H528   1.083       .  S
C517        C518   1.347       .  D
C517        H529   1.085       .  S
C518        C519   1.487       .  S
C518        H530   1.085       .  S
C519        C520   1.402       .  A
C519        C524   1.410       .  A
C520        C521   1.396       .  A
C520        H531   1.084       .  S
C521        C522   1.405       .  A
C521        H532   1.083       .  S
C522        C523   1.404       .  A
C523        C524   1.402       .  A
C523        H533   1.083       .  S
C524        H534   1.082       .  S
C535        C536   1.405       .  A
C535        C540   1.404       .  A
C536        C537   1.401       .  A
C536        H549   1.083       .  S
C537        C538   1.405       .  A
C537        H550   1.084       .  S
C538        C539   1.409       .  A
C538        C541   1.492       .  S
C539        C540   1.398       .  A
C539        H551   1.081       .  S
C540        H552   1.083       .  S
C541        C542   1.348       .  D
C541        H553   1.086       .  S
C542        C543   1.487       .  S
C542        H554   1.085       .  S
C543        C544   1.401       .  A
C543        C548   1.409       .  A
C544        C545   1.395       .  A
C544        H555   1.085       .  S
C545        C546   1.407       .  A
C545        H556   1.082       .  S
C546        C547   1.408       .  A
C547        C548   1.405       .  A
C547        H557   1.083       .  S
C548        H558   1.082       .  S
C559       C1286   1.408       .  A
C559        C564   1.407   1_655  A
C560       C1285   1.408       .  A
C560        C561   1.400       .  A
C560        H573   1.083       .  S
C561       C1288   1.403       .  A
C561        H574   1.084       .  S
C562       C1287   1.403       .  A
C562        C563   1.410   1_655  A
C562       C1291   1.494       .  S
C563        C564   1.403       .  A
C563        H575   1.081       .  S
C564        H576   1.083       .  S
C565       C1288   1.495       .  S
C565       C1292   1.350       .  D
C565        H577   1.085       .  S
C566        C567   1.496       .  S
C566       C1291   1.349   1_455  D
C566        H578   1.086       .  S
C567        C568   1.404       .  A
C567       C1298   1.412   1_455  A
C568        C569   1.397       .  A
C568        H579   1.084       .  S
C569        C570   1.404       .  A
C569        H580   1.083       .  S
C570       C1297   1.406   1_455  A
C571       C1296   1.406       .  A
C571        C572   1.407       .  A
C571        H581   1.083       .  S
C572       C1293   1.412       .  A
C572        H582   1.080       .  S
C583       C1104   1.483       .  S
C583        C584   1.406       .  A
C583        C588   1.406       .  A
C584        C585   1.397       .  A
C584        H960   1.083   1_565  S
C585        C586   1.403       .  A
C585        H598   1.083       .  S
C586        C587   1.408       .  A
C586        C589   1.488       .  S
C587        C588   1.400       .  A
C587        H599   1.082       .  S
C588        H600   1.083       .  S
C589        C590   1.347       .  D
C589        H601   1.086       .  S
C590        C591   1.488       .  S
C590        H602   1.085       .  S
C591        C592   1.405       .  A
C591        C596   1.407       .  A
C592        C593   1.401       .  A
C592        H603   1.083       .  S
C593        C594   1.404       .  A
C593        H604   1.083       .  S
C594        C595   1.406       .  A
C595        C596   1.397       .  A
C595        H605   1.083       .  S
C596        H606   1.082       .  S
H597        C947   1.083   1_455  S
C607        C608   1.406       .  A
C607        C612   1.406       .  A
C608        C609   1.405       .  A
C608        H621   1.083   1_565  S
C609        C610   1.406       .  A
C609        H622   1.083       .  S
C610        C611   1.405       .  A
C610        C613   1.488       .  S
C611        C612   1.396       .  A
C611        H623   1.082       .  S
C612        H624   1.083       .  S
C613        C614   1.347       .  D
C613        H625   1.086   1_455  S
C614        C615   1.485       .  S
C614        H626   1.087       .  S
C615        C616   1.401       .  A
C615        C620   1.408   1_455  A
C616        C617   1.396       .  A
C616        H627   1.083       .  S
C617        C618   1.405       .  A
C617        H628   1.083       .  S
C618        C619   1.406       .  A
C619        C620   1.405   1_455  A
C619       H1355   1.083   1_455  S
C620        H630   1.082       .  S
H629       C1345   1.083       .  S
C631        C632   1.405       .  A
C631        C636   1.404       .  A
C632        C633   1.403       .  A
C632        H645   1.083       .  S
C633        C634   1.405       .  A
C633        H646   1.083       .  S
C634        C635   1.406       .  A
C634        C637   1.487       .  S
C635        C636   1.397       .  A
C635        H647   1.082       .  S
C636        H648   1.083       .  S
C637        C638   1.346       .  D
C637        H649   1.087       .  S
C638        C639   1.483       .  S
C638        H650   1.087       .  S
C639        C640   1.400       .  A
C639        C644   1.407       .  A
C640        C641   1.396       .  A
C640        H651   1.084       .  S
C641        C642   1.407   1_565  A
C641        H652   1.083       .  S
C643        H653   1.083       .  S
C644        H654   1.083       .  S
C655        C656   1.406       .  A
C655        C660   1.405       .  A
C656        C657   1.403       .  A
C656        H669   1.083       .  S
C657        C658   1.404       .  A
C657        H670   1.083       .  S
C658        C659   1.406       .  A
C658        C661   1.487       .  S
C659        C660   1.398       .  A
C659        H671   1.082       .  S
C660        H672   1.083       .  S
C661        C662   1.347       .  D
C661        H673   1.086       .  S
C662        C663   1.486       .  S
C662        H674   1.087       .  S
C663        C664   1.404       .  A
C663        C668   1.407       .  A
C664        C665   1.399       .  A
C664        H675   1.083       .  S
C665        C666   1.404       .  A
C665        H676   1.083       .  S
C666        C667   1.406       .  A
C667        C668   1.402       .  A
C667        H677   1.083       .  S
C668        H678   1.082       .  S
C679        C680   1.407       .  A
C679        C684   1.409       .  A
C680        C681   1.401       .  A
C680        H693   1.083       .  S
C681        C682   1.406       .  A
C681        H694   1.083       .  S
C682        C683   1.407       .  A
C682        C685   1.493       .  S
C683        C684   1.403       .  A
C683        H695   1.082       .  S
C684        H696   1.083       .  S
C685        C686   1.353       .  D
C685        H697   1.085       .  S
C686        C687   1.494       .  S
C686        H698   1.085       .  S
C687        C688   1.409       .  A
C687        C692   1.405       .  A
C688        C689   1.408       .  A
C688        H699   1.083       .  S
C689        C690   1.406       .  A
C689        H700   1.083       .  S
C690        C691   1.406       .  A
C691        C692   1.395       .  A
C691        H701   1.083       .  S
C692        H702   1.082       .  S
C703        C704   1.403       .  A
C703        C708   1.405       .  A
C704        C705   1.393       .  A
C704        H717   1.083   1_455  S
C705        C706   1.401       .  A
C705        H718   1.083   1_455  S
C706        C707   1.408       .  A
C706        C709   1.481       .  S
C707        C708   1.403       .  A
C707        H719   1.082       .  S
C708        H720   1.083       .  S
C709        C710   1.345       .  D
C709        H721   1.086       .  S
C710        C711   1.485       .  S
C710        H722   1.086       .  S
C711        C712   1.404       .  A
C711        C716   1.406       .  A
C712        C713   1.402       .  A
C712        H723   1.083       .  S
C713        C714   1.405       .  A
C713        H724   1.083       .  S
C714        C715   1.404       .  A
C715        C716   1.395       .  A
C715        H725   1.083       .  S
C716        H726   1.082       .  S
C727        N728   1.361       .  A
C727        N732   1.362       .  A
C727       C1077   1.478       .  S
N728        C729   1.358       .  A
C729        N730   1.359       .  A
C729       C1042   1.492       .  S
N730        C731   1.361       .  A
C731        N732   1.359       .  A
C731        C743   1.474       .  S
C733        N734   1.359       .  A
C733        N738   1.362       .  A
C733       C1368   1.485       .  S
N734        C735   1.358       .  A
C735        N736   1.359       .  A
C735       C1018   1.482       .  S
N736        C737   1.361       .  A
C737        N738   1.361       .  A
C737        C787   1.471       .  S
C739        N740   1.360       .  A
C739       N1107   1.365       .  A
C739        C970   1.484       .  S
N740        C741   1.357       .  A
C741       N1105   1.356       .  A
N742       C1104   1.355   1_545  A
N742        C743   1.356       .  A
C743        N744   1.364       .  A
N744       C1102   1.365   1_545  A
In745       O747   2.198       .  S
In745       O756   2.189       .  S
In745       O750   2.225       .  S
In745       O752   2.234       .  S
In745       O754   2.203       .  S
In745       O757   2.201       .  S
C746        C994   1.479       .  S
C746        O752   1.275       .  A
C746        O754   1.271       .  A
O747        C755   1.271       .  A
C749       C1066   1.475       .  S
C749        O756   1.273       .  A
C749        O750   1.277       .  A
C751        C933   1.485       .  S
C751        O757   1.272       .  A
C755        C981   1.481       .  S
C758        N759   1.362       .  A
C758        N763   1.358       .  A
C758        C909   1.488       .  S
N759        C760   1.363       .  A
C760        N761   1.360       .  A
C760        C768   1.472       .  S
N761        C762   1.360       .  A
C762        N763   1.357       .  A
C762        C874   1.486       .  S
C764        N765   1.357       .  A
C764        N769   1.361   1_655  A
C764        C861   1.486       .  S
N765        C766   1.357       .  A
C766        C826   1.485       .  S
N767        C768   1.363       .  A
In770       O772   2.204       .  S
In770       O773   2.243       .  S
In770       O781   2.199       .  S
In770       O775   2.262       .  S
In770       O777   2.240       .  S
In770       O778   2.241       .  S
In770       O779   2.209       .  S
In770       O782   2.202       .  S
C771        C837   1.479       .  S
C771        O777   1.275       .  A
C771        O779   1.268       .  A
O772        C780   1.268       .  A
O773        C780   1.274       .  A
C774       C1053   1.486       .  S
C774        O781   1.267       .  A
C774        O775   1.275       .  A
C776        C885   1.480       .  S
C776        O778   1.275       .  A
C776        O782   1.269       .  A
C780        C957   1.480       .  S
C783        N788   1.363       .  A
C783        C922   1.491       .  S
N784        C785   1.359       .  A
C785        C802   1.481       .  S
N786        C787   1.359       .  A
C787        N788   1.362       .  A
In789       O791   2.214   1_556  S
In789       O792   2.203   1_556  S
In789       O800   2.217   1_556  S
In789       O794   2.211   1_556  S
In789       O796   2.212       .  S
In789       O797   2.209       .  S
In789       O798   2.216       .  S
In789       O801   2.207       .  S
C790       C1029   1.481       .  S
C790        O796   1.275       .  A
C790        O798   1.277       .  A
O791        C799   1.276       .  A
O792        C799   1.276       .  A
C793        C850   1.482       .  S
C793        O800   1.276       .  A
C793        O794   1.276       .  A
C795        C813   1.478       .  S
C795        O797   1.276       .  A
C795        O801   1.277       .  A
C799        C898   1.480       .  S
C802        C803   1.404       .  A
C802        C807   1.407       .  A
C803        C804   1.396       .  A
C803        H816   1.083       .  S
C804        C805   1.401       .  A
C804        H817   1.084       .  S
C805        C806   1.406       .  A
C805        C808   1.482       .  S
C806        C807   1.402       .  A
C806        H818   1.083       .  S
C807        H819   1.083       .  S
C808        C809   1.346       .  D
C808        H820   1.086       .  S
C809        C810   1.488       .  S
C809        H821   1.087       .  S
C810        C811   1.404       .  A
C810        C815   1.408       .  A
C811        C812   1.400       .  A
C811        H822   1.083       .  S
C812        C813   1.405       .  A
C812        H823   1.083       .  S
C813        C814   1.403       .  A
C814        C815   1.398       .  A
C814        H824   1.083       .  S
C815        H825   1.082       .  S
C826       C1190   1.407   1_545  A
C826        C831   1.406       .  A
C827       C1189   1.407       .  A
C827        C828   1.396       .  A
C827        H840   1.083       .  S
C828        C829   1.401       .  A
C828        H841   1.084       .  S
C829        C830   1.408       .  A
C829        C832   1.485       .  S
C830       C1194   1.405       .  A
C830       H1205   1.083       .  S
C831       C1193   1.405   1_545  A
C831        H843   1.083       .  S
C832        C833   1.346       .  D
C832        H844   1.087       .  S
C833        C834   1.487       .  S
C833        H845   1.087       .  S
C834        C835   1.404       .  A
C834        C839   1.406       .  A
C835        C836   1.402       .  A
C835        H846   1.083       .  S
C836        C837   1.404       .  A
C836        H847   1.083       .  S
C837        C838   1.406       .  A
C838        C839   1.399       .  A
C838        H848   1.083       .  S
C839        H849   1.082       .  S
H842       C1193   1.083       .  S
C850        C851   1.405       .  A
C850        C855   1.404       .  A
C851        C852   1.401       .  A
C851        H864   1.083       .  S
C852        C853   1.404       .  A
C852        H865   1.083       .  S
C853        C854   1.408       .  A
C853        C856   1.490       .  S
C854        C855   1.399       .  A
C854        H866   1.081       .  S
C855        H867   1.083       .  S
C856        C857   1.348       .  D
C856        H868   1.085       .  S
C857        C858   1.488       .  S
C857        H869   1.085       .  S
C858        C859   1.402       .  A
C858        C863   1.409       .  A
C859        C860   1.396       .  A
C859        H870   1.084       .  S
C860        C861   1.407       .  A
C860        H871   1.082       .  S
C861        C862   1.407       .  A
C862        C863   1.403       .  A
C862        H872   1.083   1_655  S
C863        H873   1.081       .  S
C874        C875   1.408       .  A
C874        C879   1.406       .  A
C875        C876   1.398       .  A
C875        H888   1.082       .  S
C876        C877   1.403       .  A
C876        H889   1.084       .  S
C877        C878   1.409       .  A
C877        C880   1.489       .  S
C878        C879   1.400       .  A
C878        H890   1.081       .  S
C879        H891   1.083       .  S
C880        C881   1.347       .  D
C880        H892   1.086       .  S
C881        C882   1.487       .  S
C881        H893   1.085       .  S
C882        C883   1.402       .  A
C882        C887   1.410       .  A
C883        C884   1.396       .  A
C883        H894   1.084       .  S
C884        C885   1.405       .  A
C884        H895   1.083       .  S
C885        C886   1.404       .  A
C886        C887   1.402       .  A
C886        H896   1.083       .  S
C887        H897   1.082       .  S
C898        C899   1.405       .  A
C898        C903   1.404       .  A
C899        C900   1.401       .  A
C899        H912   1.083       .  S
C900        C901   1.405       .  A
C900        H913   1.084       .  S
C901        C902   1.409       .  A
C901        C904   1.492       .  S
C902        C903   1.397       .  A
C902        H914   1.081       .  S
C903        H915   1.083       .  S
C904        C905   1.348       .  D
C904        H916   1.086       .  S
C905        C906   1.487       .  S
C905        H917   1.085       .  S
C906        C907   1.401       .  A
C906        C911   1.409       .  A
C907        C908   1.395       .  A
C907        H918   1.085       .  S
C908        C909   1.407       .  A
C908        H919   1.082       .  S
C909        C910   1.408       .  A
C910        C911   1.405       .  A
C910        H920   1.083       .  S
C911        H921   1.082       .  S
C922        C927   1.407       .  A
C923        C924   1.400       .  A
C923        H936   1.083       .  S
C924        H937   1.084       .  S
C925        C926   1.410       .  A
C926        C927   1.403       .  A
C926        H938   1.081       .  S
C927        H939   1.083       .  S
C928        H940   1.085       .  S
C929        C930   1.496       .  S
C929        H941   1.086       .  S
C930        C931   1.404       .  A
C931        C932   1.396       .  A
C931        H942   1.084       .  S
C932        C933   1.404       .  A
C932        H943   1.083       .  S
C934        C935   1.407       .  A
C934        H944   1.083       .  S
C935        H945   1.080       .  S
C946        C947   1.406       .  A
C946        C951   1.406       .  A
C947        C948   1.397       .  A
C948        C949   1.403       .  A
C948        H961   1.083       .  S
C949        C950   1.408       .  A
C949        C952   1.488       .  S
C950        C951   1.400       .  A
C950        H962   1.082       .  S
C951        H963   1.083       .  S
C952        C953   1.347       .  D
C952        H964   1.086       .  S
C953        C954   1.488       .  S
C953        H965   1.085       .  S
C954        C955   1.405       .  A
C954        C959   1.407       .  A
C955        C956   1.401       .  A
C955        H966   1.083       .  S
C956        C957   1.404       .  A
C956        H967   1.083       .  S
C957        C958   1.406       .  A
C958        C959   1.397       .  A
C958        H968   1.083       .  S
C959        H969   1.082       .  S
C970        C971   1.406       .  A
C970        C975   1.406       .  A
C971        C972   1.405       .  A
C971        H984   1.083       .  S
C972        C973   1.406       .  A
C972        H985   1.083       .  S
C973        C974   1.405       .  A
C973        C976   1.488       .  S
C974        C975   1.396       .  A
C974        H986   1.082       .  S
C975        H987   1.083       .  S
C976        C977   1.347       .  D
C976        H988   1.086       .  S
C977        C978   1.484       .  S
C977        H989   1.087       .  S
C978        C979   1.401       .  A
C978        C983   1.408       .  A
C979        C980   1.396       .  A
C979        H990   1.083       .  S
C980        C981   1.405       .  A
C980        H991   1.083       .  S
C981        C982   1.406       .  A
C982        C983   1.405       .  A
C983        H993   1.082       .  S
C994        C995   1.405       .  A
C994        C999   1.404       .  A
C995        C996   1.403       .  A
C995       H1008   1.083       .  S
C996        C997   1.405       .  A
C996       H1009   1.083       .  S
C997        C998   1.406       .  A
C997       C1000   1.487       .  S
C998        C999   1.397       .  A
C998       H1010   1.082       .  S
C999       H1011   1.083       .  S
C1000      C1001   1.346       .  D
C1000      H1012   1.087       .  S
C1001      C1002   1.483       .  S
C1001      H1013   1.087       .  S
C1002      C1003   1.401       .  A
C1002      C1007   1.407       .  A
C1003      C1004   1.396       .  A
C1003      H1014   1.084       .  S
C1004      C1005   1.407       .  A
C1004      H1015   1.083       .  S
C1005      C1096   1.485       .  S
C1005      C1369   1.407       .  A
C1006      C1368   1.407       .  A
C1006      C1370   1.404   1_545  A
C1006      H1016   1.083       .  S
C1007      C1369   1.404       .  A
C1007      H1017   1.083       .  S
C1018      C1019   1.406       .  A
C1018      C1023   1.405       .  A
C1019      C1020   1.403       .  A
C1019      H1032   1.083       .  S
C1020      C1021   1.404       .  A
C1020      H1033   1.083       .  S
C1021      C1022   1.406       .  A
C1021      C1024   1.487       .  S
C1022      C1023   1.398       .  A
C1022      H1034   1.082       .  S
C1023      H1035   1.083       .  S
C1024      C1025   1.347       .  D
C1024      H1036   1.086       .  S
C1025      C1026   1.487       .  S
C1025      H1037   1.087       .  S
C1026      C1027   1.404       .  A
C1026      C1031   1.407       .  A
C1027      C1028   1.400       .  A
C1027      H1038   1.083       .  S
C1028      C1029   1.404       .  A
C1028      H1039   1.083       .  S
C1029      C1030   1.406       .  A
C1030      C1031   1.401       .  A
C1030      H1040   1.083       .  S
C1031      H1041   1.082       .  S
C1042      C1043   1.407       .  A
C1042      C1047   1.409       .  A
C1043      C1044   1.400       .  A
C1043      H1056   1.083       .  S
C1044      C1045   1.405       .  A
C1044      H1057   1.083       .  S
C1045      C1046   1.407       .  A
C1045      C1048   1.493       .  S
C1046      C1047   1.403       .  A
C1046      H1058   1.082       .  S
C1047      H1059   1.083       .  S
C1048      C1049   1.353       .  D
C1048      H1060   1.085       .  S
C1049      C1050   1.494       .  S
C1049      H1061   1.085       .  S
C1050      C1051   1.409       .  A
C1050      C1055   1.405       .  A
C1051      C1052   1.408       .  A
C1051      H1062   1.083       .  S
C1052      C1053   1.406       .  A
C1052      H1063   1.083       .  S
C1053      C1054   1.405       .  A
C1054      C1055   1.395       .  A
C1054      H1064   1.083       .  S
C1055      H1065   1.082       .  S
C1066      C1067   1.403       .  A
C1066      C1071   1.405       .  A
C1067      C1068   1.393       .  A
C1067      H1080   1.083       .  S
C1068      C1069   1.401       .  A
C1068      H1081   1.083       .  S
C1069      C1070   1.408       .  A
C1069      C1072   1.481       .  S
C1070      C1071   1.403       .  A
C1070      H1082   1.082       .  S
C1071      H1083   1.083       .  S
C1072      C1073   1.345       .  D
C1072      H1084   1.086       .  S
C1073      C1074   1.485       .  S
C1073      H1085   1.086       .  S
C1074      C1075   1.404       .  A
C1074      C1079   1.406       .  A
C1075      C1076   1.402       .  A
C1075      H1086   1.083       .  S
C1076      C1077   1.406       .  A
C1076      H1087   1.083       .  S
C1077      C1078   1.404       .  A
C1078      C1079   1.395       .  A
C1078      H1088   1.083       .  S
C1079      H1089   1.082       .  S
C1090      N1091   1.361       .  A
C1090      N1095   1.362       .  A
C1090      C1440   1.480       .  S
N1091      C1092   1.358       .  A
C1092      N1093   1.359       .  A
C1092      C1405   1.491       .  S
N1093      C1094   1.361       .  A
C1094      N1095   1.360       .  A
C1094      C1106   1.473       .  S
C1096      N1097   1.359       .  A
C1096      N1101   1.362       .  A
N1097      C1098   1.357       .  A
C1098      N1099   1.360       .  A
C1098      C1381   1.482       .  S
N1099      C1100   1.362       .  A
C1100      N1101   1.361       .  A
C1100      C1150   1.472       .  S
C1102      N1103   1.361       .  A
C1102      C1333   1.486       .  S
N1103      C1104   1.357       .  A
N1105      C1106   1.357       .  A
C1106      N1107   1.364       .  A
In1108     O1110   2.198       .  S
In1108     O1119   2.189       .  S
In1108     O1113   2.231       .  S
In1108     O1115   2.239       .  S
In1108     O1117   2.204       .  S
In1108     O1120   2.202       .  S
C1109      C1357   1.479       .  S
C1109      O1115   1.275       .  A
C1109      O1117   1.270       .  A
O1110      C1118   1.270       .  A
C1112      C1429   1.475       .  S
C1112      O1119   1.271       .  A
C1112      O1113   1.277       .  A
C1114      C1296   1.486       .  S
C1114      O1120   1.271       .  A
C1118      C1344   1.482       .  S
C1121      N1122   1.362       .  A
C1121      N1126   1.358       .  A
C1121      C1272   1.488       .  S
N1122      C1123   1.362       .  A
C1123      N1124   1.360       .  A
C1123      C1131   1.472       .  S
N1124      C1125   1.360       .  A
C1125      N1126   1.357       .  A
C1125      C1237   1.486       .  S
C1127      N1128   1.357       .  A
C1127      N1132   1.360   1_655  A
C1127      C1224   1.487       .  S
N1128      C1129   1.357       .  A
C1129      C1189   1.486       .  S
N1130      C1131   1.363       .  A
In1133     O1135   2.205       .  S
In1133     O1136   2.244       .  S
In1133     O1144   2.199       .  S
In1133     O1138   2.261       .  S
In1133     O1140   2.240       .  S
In1133     O1141   2.242       .  S
In1133     O1142   2.208       .  S
In1133     O1145   2.203       .  S
C1134      C1200   1.479       .  S
C1134      O1140   1.275       .  A
C1134      O1142   1.268       .  A
O1135      C1143   1.268       .  A
O1136      C1143   1.275       .  A
C1137      C1416   1.486       .  S
C1137      O1144   1.268       .  A
C1137      O1138   1.275       .  A
C1139      C1248   1.481       .  S
C1139      O1141   1.275       .  A
C1139      O1145   1.269       .  A
C1143      C1320   1.481       .  S
C1146      N1151   1.363       .  A
C1146      C1285   1.491       .  S
N1147      C1148   1.359       .  A
C1148      C1165   1.481       .  S
N1149      C1150   1.359       .  A
C1150      N1151   1.362       .  A
In1152     O1154   2.206   1_556  S
In1152     O1155   2.208   1_556  S
In1152     O1163   2.214   1_556  S
In1152     O1157   2.215   1_556  S
In1152     O1159   2.219       .  S
In1152     O1160   2.214       .  S
In1152     O1161   2.211       .  S
In1152     O1164   2.202       .  S
C1153      C1392   1.481       .  S
C1153      O1159   1.276       .  A
C1153      O1161   1.276       .  A
O1154      C1162   1.275       .  A
O1155      C1162   1.277       .  A
C1156      C1213   1.482       .  S
C1156      O1163   1.276       .  A
C1156      O1157   1.277       .  A
C1158      C1176   1.478       .  S
C1158      O1160   1.277       .  A
C1158      O1164   1.276       .  A
C1162      C1261   1.479       .  S
C1165      C1166   1.404       .  A
C1165      C1170   1.407       .  A
C1166      C1167   1.396       .  A
C1166      H1179   1.083       .  S
C1167      C1168   1.401       .  A
C1167      H1180   1.084       .  S
C1168      C1169   1.406       .  A
C1168      C1171   1.481       .  S
C1169      C1170   1.403       .  A
C1169      H1181   1.083       .  S
C1170      H1182   1.083   1_655  S
C1171      C1172   1.346       .  D
C1171      H1183   1.086       .  S
C1172      C1173   1.488       .  S
C1172      H1184   1.087       .  S
C1173      C1174   1.404       .  A
C1173      C1178   1.407       .  A
C1174      C1175   1.401       .  A
C1174      H1185   1.083       .  S
C1175      C1176   1.405       .  A
C1175      H1186   1.083       .  S
C1176      C1177   1.403       .  A
C1177      C1178   1.397       .  A
C1177      H1187   1.083       .  S
C1178      H1188   1.082       .  S
C1189      C1194   1.407       .  A
C1190      C1191   1.396       .  A
C1190      H1203   1.083       .  S
C1191      C1192   1.401       .  A
C1191      H1204   1.084       .  S
C1192      C1193   1.408       .  A
C1192      C1195   1.485       .  S
C1194      H1206   1.083       .  S
C1195      C1196   1.346       .  D
C1195      H1207   1.087       .  S
C1196      C1197   1.487       .  S
C1196      H1208   1.087       .  S
C1197      C1198   1.404       .  A
C1197      C1202   1.406       .  A
C1198      C1199   1.402       .  A
C1198      H1209   1.083       .  S
C1199      C1200   1.404       .  A
C1199      H1210   1.083       .  S
C1200      C1201   1.406       .  A
C1201      C1202   1.398       .  A
C1201      H1211   1.083       .  S
C1202      H1212   1.082       .  S
C1213      C1214   1.406       .  A
C1213      C1218   1.404       .  A
C1214      C1215   1.400       .  A
C1214      H1227   1.083       .  S
C1215      C1216   1.404       .  A
C1215      H1228   1.084       .  S
C1216      C1217   1.408       .  A
C1216      C1219   1.490       .  S
C1217      C1218   1.400       .  A
C1217      H1229   1.081       .  S
C1218      H1230   1.083       .  S
C1219      C1220   1.348       .  D
C1219      H1231   1.085       .  S
C1220      C1221   1.489       .  S
C1220      H1232   1.085       .  S
C1221      C1222   1.402       .  A
C1221      C1226   1.409       .  A
C1222      C1223   1.397       .  A
C1222      H1233   1.084       .  S
C1223      C1224   1.407       .  A
C1223      H1234   1.082       .  S
C1224      C1225   1.406       .  A
C1225      C1226   1.403       .  A
C1225      H1235   1.083       .  S
C1226      H1236   1.081       .  S
C1237      C1238   1.408       .  A
C1237      C1242   1.406       .  A
C1238      C1239   1.398       .  A
C1238      H1251   1.082       .  S
C1239      C1240   1.403       .  A
C1239      H1252   1.084       .  S
C1240      C1241   1.409       .  A
C1240      C1243   1.489       .  S
C1241      C1242   1.400       .  A
C1241      H1253   1.081       .  S
C1242      H1254   1.083       .  S
C1243      C1244   1.347       .  D
C1243      H1255   1.085       .  S
C1244      C1245   1.488       .  S
C1244      H1256   1.085       .  S
C1245      C1246   1.402       .  A
C1245      C1250   1.410       .  A
C1246      C1247   1.396       .  A
C1246      H1257   1.084       .  S
C1247      C1248   1.405       .  A
C1247      H1258   1.083       .  S
C1248      C1249   1.404       .  A
C1249      C1250   1.403       .  A
C1249      H1259   1.083       .  S
C1250      H1260   1.082       .  S
C1261      C1262   1.405       .  A
C1261      C1266   1.403       .  A
C1262      C1263   1.399       .  A
C1262      H1275   1.083       .  S
C1263      C1264   1.405       .  A
C1263      H1276   1.084       .  S
C1264      C1265   1.410       .  A
C1264      C1267   1.492       .  S
C1265      C1266   1.398       .  A
C1265      H1277   1.081       .  S
C1266      H1278   1.083       .  S
C1267      C1268   1.347       .  D
C1267      H1279   1.086       .  S
C1268      C1269   1.487       .  S
C1268      H1280   1.085       .  S
C1269      C1270   1.401       .  A
C1269      C1274   1.409       .  A
C1270      C1271   1.395       .  A
C1270      H1281   1.085       .  S
C1271      C1272   1.407       .  A
C1271      H1282   1.082       .  S
C1272      C1273   1.408       .  A
C1273      C1274   1.404       .  A
C1273      H1283   1.083       .  S
C1274      H1284   1.082       .  S
C1285      C1290   1.407       .  A
C1286      C1287   1.399       .  A
C1286      H1299   1.083       .  S
C1287      H1300   1.084       .  S
C1288      C1289   1.410       .  A
C1289      C1290   1.403       .  A
C1289      H1301   1.081       .  S
C1290      H1302   1.083       .  S
C1291      H1303   1.084       .  S
C1292      C1293   1.496       .  S
C1292      H1304   1.086       .  S
C1293      C1294   1.404       .  A
C1294      C1295   1.396       .  A
C1294      H1305   1.084       .  S
C1295      C1296   1.405       .  A
C1295      H1306   1.083       .  S
C1297      C1298   1.406       .  A
C1297      H1307   1.083       .  S
C1298      H1308   1.080       .  S
C1309      C1310   1.406   1_665  A
C1309      C1314   1.406       .  A
C1310      C1311   1.398   1_445  A
C1311      C1312   1.403       .  A
C1311      H1324   1.083   1_565  S
C1312      C1313   1.408       .  A
C1312      C1315   1.488       .  S
C1313      C1314   1.400       .  A
C1313      H1325   1.082       .  S
C1314      H1326   1.083       .  S
C1315      C1316   1.348       .  D
C1315      H1327   1.086       .  S
C1316      C1317   1.488       .  S
C1316      H1328   1.086       .  S
C1317      C1318   1.405       .  A
C1317      C1322   1.407       .  A
C1318      C1319   1.402       .  A
C1318      H1329   1.083       .  S
C1319      C1320   1.404       .  A
C1319      H1330   1.083       .  S
C1320      C1321   1.406       .  A
C1321      C1322   1.397       .  A
C1321      H1331   1.083       .  S
C1322      H1332   1.082       .  S
C1333      C1334   1.406       .  A
C1333      C1338   1.406       .  A
C1334      C1335   1.405       .  A
C1334      H1347   1.083   1_565  S
C1335      C1336   1.406       .  A
C1335      H1348   1.083       .  S
C1336      C1337   1.405       .  A
C1336      C1339   1.489       .  S
C1337      C1338   1.396       .  A
C1337      H1349   1.082       .  S
C1338      H1350   1.083       .  S
C1339      C1340   1.348       .  D
C1339      H1351   1.086       .  S
C1340      C1341   1.485       .  S
C1340      H1352   1.087       .  S
C1341      C1342   1.401       .  A
C1341      C1346   1.408       .  A
C1342      C1343   1.395       .  A
C1342      H1353   1.083       .  S
C1343      C1344   1.405       .  A
C1343      H1354   1.083       .  S
C1344      C1345   1.406       .  A
C1345      C1346   1.406       .  A
C1346      H1356   1.082       .  S
C1357      C1358   1.405       .  A
C1357      C1362   1.404       .  A
C1358      C1359   1.404       .  A
C1358      H1371   1.083       .  S
C1359      C1360   1.405       .  A
C1359      H1372   1.083       .  S
C1360      C1361   1.406       .  A
C1360      C1363   1.488       .  S
C1361      C1362   1.397       .  A
C1361      H1373   1.082       .  S
C1362      H1374   1.083       .  S
C1363      C1364   1.346       .  D
C1363      H1375   1.087       .  S
C1364      C1365   1.484       .  S
C1364      H1376   1.087       .  S
C1365      C1366   1.401       .  A
C1365      C1370   1.407       .  A
C1366      C1367   1.397       .  A
C1366      H1377   1.084       .  S
C1367      C1368   1.407   1_565  A
C1367      H1378   1.083       .  S
C1369      H1379   1.083       .  S
C1370      H1380   1.083       .  S
C1381      C1382   1.406       .  A
C1381      C1386   1.405       .  A
C1382      C1383   1.403       .  A
C1382      H1395   1.083       .  S
C1383      C1384   1.405       .  A
C1383      H1396   1.083       .  S
C1384      C1385   1.406       .  A
C1384      C1387   1.488       .  S
C1385      C1386   1.398       .  A
C1385      H1397   1.082       .  S
C1386      H1398   1.083       .  S
C1387      C1388   1.347       .  D
C1387      H1399   1.086       .  S
C1388      C1389   1.487       .  S
C1388      H1400   1.087       .  S
C1389      C1390   1.403       .  A
C1389      C1394   1.408       .  A
C1390      C1391   1.399       .  A
C1390      H1401   1.083       .  S
C1391      C1392   1.404       .  A
C1391      H1402   1.083       .  S
C1392      C1393   1.406       .  A
C1393      C1394   1.403       .  A
C1393      H1403   1.083       .  S
C1394      H1404   1.082       .  S
C1405      C1406   1.407       .  A
C1405      C1410   1.409       .  A
C1406      C1407   1.400       .  A
C1406      H1419   1.083       .  S
C1407      C1408   1.405       .  A
C1407      H1420   1.083       .  S
C1408      C1409   1.407       .  A
C1408      C1411   1.492       .  S
C1409      C1410   1.402       .  A
C1409      H1421   1.082       .  S
C1410      H1422   1.083       .  S
C1411      C1412   1.352       .  D
C1411      H1423   1.086       .  S
C1412      C1413   1.494       .  S
C1412      H1424   1.085       .  S
C1413      C1414   1.408       .  A
C1413      C1418   1.405       .  A
C1414      C1415   1.408       .  A
C1414      H1425   1.083       .  S
C1415      C1416   1.406       .  A
C1415      H1426   1.083       .  S
C1416      C1417   1.405       .  A
C1417      C1418   1.395       .  A
C1417      H1427   1.083       .  S
C1418      H1428   1.082       .  S
C1429      C1430   1.403       .  A
C1429      C1434   1.405       .  A
C1430      C1431   1.392       .  A
C1430      H1443   1.083       .  S
C1431      C1432   1.400       .  A
C1431      H1444   1.083       .  S
C1432      C1433   1.408       .  A
C1432      C1435   1.481       .  S
C1433      C1434   1.404       .  A
C1433      H1445   1.082       .  S
C1434      H1446   1.083       .  S
C1435      C1436   1.345       .  D
C1435      H1447   1.086       .  S
C1436      C1437   1.486       .  S
C1436      H1448   1.086       .  S
C1437      C1438   1.404       .  A
C1437      C1442   1.406       .  A
C1438      C1439   1.402       .  A
C1438      H1449   1.083       .  S
C1439      C1440   1.406       .  A
C1439      H1450   1.083       .  S
C1440      C1441   1.404       .  A
C1441      C1442   1.395       .  A
C1441      H1451   1.083       .  S
C1442      H1452   1.082       .  S
