geometry optimzed in LAMMPS
_audit_creation_date              2020-11-30 
_audit_creation_method            'lammps2cif' 
_symmetry_space_group_name_H-M    'P1' 
_symmetry_Int_Tables_number       1 
_symmetry_cell_setting            triclinic 
loop_ 
_symmetry_equiv_pos_as_xyz 
  x,y,z 
_cell_length_a                    36.96860637 
_cell_length_b                    37.161385215718916 
_cell_length_c                    30.41866400448545 
_cell_angle_alpha                 89.59881751333648 
_cell_angle_beta                  90.53291263252123 
_cell_angle_gamma                 119.68563359778925 
loop_ 
_atom_site_label 
_atom_site_type_symbol 
_atom_site_fract_x 
_atom_site_fract_y 
_atom_site_fract_z 
_atom_site_charge 
C1          C  0.03483001  0.08770009  0.24490897     0.03500
C2          C  0.01927869  0.10917120  0.26771245    -0.12700
C3          C  0.04120703  0.15239721  0.26994651     0.01000
C4          C  0.08148066  0.17431205  0.24956754    -0.11200
C5          C  0.09764718  0.15150512  0.22681134     0.03500
C6          C  0.07317272  0.10852050  0.22446515    -0.10600
H7          H  0.48923086  0.09163522  0.28347588     0.09100
H8          H  0.09964105  0.20774213  0.25164002     0.06600
H9          H  0.08460561  0.09054561  0.20747028     0.06400
C10         C  0.06211795  0.37800013  0.40453860     0.03500
C11         C  0.04096543  0.33862790  0.38569204    -0.12700
C12         C  0.05373753  0.30920511  0.39288781     0.01000
C13         C  0.09175782  0.32179641  0.41676392    -0.11200
C14         C  0.11461774  0.36297842  0.43392001     0.03500
C15         C  0.09771354  0.38904031  0.42978649    -0.10600
H16         H  0.51318011  0.33042861  0.36638428     0.09100
H17         H  0.10335152  0.30041494  0.42149404     0.06600
H18         H  0.11309361  0.41895896  0.44601142     0.06400
C19         C  0.38606435  0.27969709  0.25136152     0.03500
C20         C  0.34673504  0.25824945  0.23242438    -0.12700
C21         C  0.32399648  0.21503055  0.23309544     0.01000
C22         C  0.34235204  0.19289840  0.25373299    -0.11200
C23         C  0.38323168  0.21564521  0.27300740     0.03500
C24         C  0.40370288  0.25871409  0.27191720    -0.10600
H25         H  0.33371325  0.27574545  0.21694437     0.09100
H26         H  0.32565320  0.15940095  0.25449727     0.06600
H27         H  0.43409474  0.27647137  0.28747292     0.06400
In28       In  0.46836476  0.19153782  0.33964022     1.36900
C29         C  0.02516882  0.26664556  0.37461593     0.77900
O30         O  0.99841732  0.15241842  0.32902508    -0.60500
O31         O  0.01411477  0.20005717  0.28279147    -0.51400
C32         C  0.41741213  0.12818523  0.39341863     0.70600
O33         O  0.44585424  0.16280757  0.40748621    -0.46300
C34         C  0.40765778  0.19927580  0.29664488     0.75300
O35         O  0.52269562  0.23324955  0.38784180    -0.58100
O36         O  0.42955247  0.18656421  0.27761080    -0.48200
O37         O  0.99878480  0.26093176  0.34495046    -0.54600
C38         C  0.01903900  0.17026321  0.29510236     0.85500
O39         O  0.41392510  0.12665433  0.35215851    -0.56500
O40         O  0.41638229  0.20683706  0.33695183    -0.59800
C41         C  0.12122049  0.98944249  0.10986559     0.03500
C42         C  0.14077544  0.02854645  0.12926634    -0.12700
C43         C  0.18156884  0.05835941  0.11856357     0.01000
C44         C  0.20538361  0.04594591  0.09201529    -0.11200
C45         C  0.18646864  0.00442555  0.07546094     0.03500
C46         C  0.14407520  0.47799141  0.08277201    -0.10600
H47         H  0.12255518  0.03692081  0.15027433     0.09100
H48         H  0.23744868  0.06785831  0.08435903     0.06600
H49         H  0.12849310  0.44801748  0.06665400     0.06400
C50         C  0.31403108  0.33553439  0.06675513     0.03500
C51         C  0.29743343  0.35957102  0.05073659    -0.12700
C52         C  0.25462031  0.34551022  0.05317270     0.01000
C53         C  0.22833263  0.30606637  0.07336196    -0.11200
C54         C  0.24565009  0.28089076  0.08759074     0.03500
C55         C  0.28816293  0.29596678  0.08271168    -0.10600
H56         H  0.31846945  0.39056816  0.03864773     0.09100
H57         H  0.19555133  0.29535203  0.07787818     0.06600
H58         H  0.30217039  0.27833401  0.09573907     0.06400
In59       In  0.20985272  0.17664508  0.16644168     1.36900
C60         C  0.28283931  0.19721035  0.20965176     0.77900
O61         O  0.18107576  0.10708128  0.17044833    -0.60500
O62         O  0.21650889  0.13462923  0.11390364    -0.51400
C63         C  0.13909694  0.16767670  0.20495654     0.70600
O64         O  0.17364184  0.18329223  0.22513435    -0.46300
C65         C  0.22498442  0.24253196  0.11484357     0.75300
O66         O  0.24784489  0.17277804  0.22620401    -0.58100
O67         O  0.21135137  0.20646648  0.09942241    -0.48200
O68         O  0.27991756  0.21062694  0.17237697    -0.54600
C69         C  0.19487343  0.10137376  0.13492472     0.85500
O70         O  0.14146758  0.15821086  0.16568959    -0.56500
O71         O  0.22924776  0.24419729  0.15611255    -0.59800
C72         C  0.41625134  0.03757540  0.44374483     0.03500
C73         C  0.37492063  0.51100428  0.45584041    -0.12700
C74         C  0.34450771  0.02302306  0.45066870     0.01000
C75         C  0.35667043  0.06224439  0.43023971    -0.11200
C76         C  0.39967970  0.08994854  0.42073520     0.03500
C77         C  0.42878233  0.07761501  0.43021846    -0.10600
H78         H  0.36600175  0.47999792  0.46709469     0.09100
H79         H  0.33356180  0.07126882  0.42274735     0.06600
H80         H  0.46106749  0.09731450  0.42071855     0.06400
In81       In  0.22654776  0.43489951  0.00201385     1.36900
C82         C  0.20689940  0.48581385  0.04869857     0.77900
O83         O  0.29688617  0.47429924  0.00375090    -0.60500
O84         O  0.26754727  0.48233269  0.44790075    -0.51400
C85         C  0.24097274  0.37464513  0.03512994     0.70600
O86         O  0.22058656  0.38793460  0.05612365    -0.46300
C87         C  0.15570809  0.38226594  0.45716326     0.75300
O88         O  0.22731622  0.46991093  0.06510153    -0.58100
O89         O  0.18966753  0.40665015  0.43832632    -0.48200
O90         O  0.19784746  0.47670116  0.50878304    -0.54600
C91         C  0.30166180  0.49317187  0.46774201     0.85500
O92         O  0.25332328  0.39193596  0.49812761    -0.56500
O93         O  0.15849836  0.38374536  0.99847648    -0.59800
C94         C  0.41717012  0.39041628  0.12516933    -0.22100
C95         C  0.44391544  0.39092555  0.09275410     0.09900
C96         C  0.42772101  0.37062874  0.05234409     0.10300
C97         C  0.38492362  0.35291415  0.04396660    -0.17000
C98         C  0.35862738  0.35443346  0.07579788    -0.27400
C99         C  0.37453673  0.37199955  0.11738415     0.18600
C100        C  0.48889990  0.41607514  0.10075426     0.12600
C101        C  0.45548621  0.36795715  0.01821727    -0.11800
H102        H  0.37196831  0.33799539  0.01274883     0.12800
C103        C  0.34668325  0.37153187  0.15356969    -0.22600
H104        H  0.42988878  0.40562727  0.15604731     0.08500
C105        C  0.00824069  0.45961520  0.10128608     0.04800
C106        C  0.05142361  0.48265692  0.10515826    -0.19900
C107        C  0.07542045  0.46332424  0.11224753    -0.12100
C108        C  0.05519892  0.41972476  0.11700904     0.13500
C109        C  0.01233703  0.39649808  0.10880306    -0.22600
C110        C  0.48356565  0.48188696  0.09692022    -0.05600
H111        H  0.06651946  0.01602801  0.10157585     0.15100
C112        C  0.07756149  0.39713885  0.13211051    -0.15800
H113        H  0.49688815  0.36295717  0.10968225     0.09400
H114        H  0.32972092  0.38764946  0.14242738     0.07200
H115        H  0.36463672  0.38722320  0.18369226     0.08400
H116        H  0.32392423  0.33905622  0.16251318     0.07500
H117        H  0.47201928  0.35242880  0.03220073     0.02400
H118        H  0.47865930  0.39943803  0.00695665     0.02900
H119        H  0.43730732  0.34942031  0.98949425     0.06400
H120        H  0.00400143  0.51606346  0.59682123     0.05300
H121        H  0.46228871  0.47419032  0.12517369    -0.00400
H122        H  0.46499463  0.47261149  0.06601353     0.01000
H123        H  0.06150304  0.37752089  0.16102401     0.04700
H124        H  0.11004257  0.41844482  0.14272794     0.06600
H125        H  0.07761464  0.37707235  0.10529024     0.07500
C126        C  0.05405764  0.47594397  0.40047075    -0.22100
C127        C  0.51176250  0.45954979  0.40920208     0.09900
C128        C  0.48513986  0.41635617  0.41119790     0.10300
C129        C  0.50227654  0.39037485  0.40849258    -0.17000
C130        C  0.04505102  0.40654631  0.40111645    -0.27400
C131        C  0.07077058  0.44981391  0.39435961     0.18600
C132        C  0.49507202  0.48750417  0.41637565     0.12600
C133        C  0.43876171  0.39783469  0.41686957    -0.11800
H134        H  0.48223628  0.35736659  0.41339893     0.12800
C135        C  0.11526803  0.46938804  0.37905946    -0.22600
H136        H  0.07378162  0.50917092  0.39701540     0.08500
C137        C  0.49649208  0.50400033  0.45829750     0.04800
C138        C  0.47023383  0.52021513  0.46714775    -0.19900
C139        C  0.44417828  0.52129037  0.43411588    -0.12100
C140        C  0.44711176  0.50976696  0.39061041     0.13500
C141        C  0.47246634  0.49264431  0.38238518    -0.22600
C142        C  0.02581107  0.50449450  0.49315949    -0.05600
H143        H  0.46973775  0.03166476  0.49969505     0.15100
C144        C  0.42323088  0.51508462  0.35300148    -0.15800
H145        H  0.47360020  0.48178050  0.34982339     0.09400
H146        H  0.13650556  0.48957975  0.40535243     0.07200
H147        H  0.11944102  0.48863507  0.34942755     0.08400
H148        H  0.12444556  0.44633310  0.36951991     0.07500
H149        H  0.42556463  0.40669428  0.38873080     0.02400
H150        H  0.43217132  0.40924944  0.44773715     0.02900
H151        H  0.42250577  0.36347644  0.41796545     0.06400
H152        H  0.02578841  0.02195092  0.52247870     0.05300
H153        H  0.05809198  0.52027617  0.48037937    -0.00400
H154        H  0.51702546  0.47241351  0.50289267     0.01000
H155        H  0.42883969  0.50383247  0.32145547     0.04700
H156        H  0.43323117  0.54837767  0.34855815     0.06600
H157        H  0.38933816  0.49756351  0.35981676     0.07500
C158        C  0.45384447  0.47673458  0.22302745    -0.22100
C159        C  0.47086678  0.45628490  0.24689153     0.09900
C160        C  0.50939332  0.47901868  0.26877281     0.10300
C161        C  0.52919828  0.02212751  0.26809999    -0.17300
C162        C  0.01192404  0.04257968  0.24468779    -0.27400
C163        C  0.97406645  0.01988973  0.22145366     0.18600
C164        C  0.44829939  0.41097816  0.24804537     0.12600
C165        C  0.52956845  0.45795262  0.29282967    -0.11800
H166        H  0.05842794  0.04006548  0.28556695     0.12800
C167        C  0.95463013  0.04001798  0.19424586    -0.22600
H168        H  0.42476337  0.45889836  0.20523108     0.08500
C169        C  0.41076463  0.38864495  0.27147026     0.04800
C170        C  0.39151461  0.34557408  0.27269565    -0.19900
C171        C  0.40858292  0.32480599  0.25036419    -0.12100
C172        C  0.44570824  0.34698827  0.22643925     0.13500
C173        C  0.46525242  0.39009677  0.22556140    -0.22600
C174        C  0.39094409  0.40985939  0.29517421    -0.05600
H175        H  0.36286015  0.32786892  0.29088368     0.15100
C176        C  0.46401147  0.32527037  0.20099118    -0.15800
H177        H  0.99352830  0.40768388  0.20675920     0.09400
H178        H  0.92320612  0.03073390  0.20715790     0.07200
H179        H  0.95151167  0.02960119  0.15961763     0.08400
H180        H  0.97311390  0.07428017  0.19417042     0.07500
H181        H  0.53783549  0.44046962  0.26945277     0.02400
H182        H  0.50792561  0.43631588  0.31780842     0.02900
H183        H  0.55875075  0.48080304  0.30939646     0.06400
H184        H  0.36194840  0.38732248  0.31221353     0.05300
H185        H  0.38273649  0.42758804  0.27157158    -0.00400
H186        H  0.41273235  0.43111912  0.32017770     0.01000
H187        H  0.44118105  0.30440523  0.17613804     0.04700
H188        H  0.49272651  0.34765587  0.18392134     0.06600
H189        H  0.47270609  0.30712005  0.22339667     0.07500
C190        C  0.03483038  0.08770041  0.74490907     0.03500
C191        C  0.01927905  0.10917165  0.76771221    -0.12700
C192        C  0.04120750  0.15239761  0.76994639     0.01000
C193        C  0.08148121  0.17431243  0.74956765    -0.11200
C194        C  0.09764765  0.15150541  0.72681153     0.03500
C195        C  0.07317314  0.10852079  0.72446531    -0.10600
H196        H  0.48923104  0.09163544  0.78347492     0.09100
H197        H  0.09964170  0.20774242  0.75164031     0.06600
H198        H  0.08460606  0.09054587  0.70747053     0.06400
C199        C  0.06211776  0.37800002  0.90453924     0.03500
C200        C  0.04096508  0.33862768  0.88569302    -0.12700
C201        C  0.05373754  0.30920514  0.89288834     0.01000
C202        C  0.09175817  0.32179666  0.91676396    -0.11200
C203        C  0.11461799  0.36297873  0.93392004     0.03500
C204        C  0.09771362  0.38904046  0.92978673    -0.10600
H205        H  0.51317947  0.33042814  0.86638560     0.09100
H206        H  0.10335206  0.30041551  0.92149367     0.06600
H207        H  0.11309378  0.41895920  0.94601140     0.06400
C208        C  0.38606488  0.27969711  0.75136131     0.03500
C209        C  0.34673521  0.25824954  0.73242502    -0.12700
C210        C  0.32399671  0.21503062  0.73309598     0.01000
C211        C  0.34235248  0.19289854  0.75373312    -0.11200
C212        C  0.38323236  0.21564533  0.77300689     0.03500
C213        C  0.40370371  0.25871419  0.77191635    -0.10600
H214        H  0.33371322  0.27574554  0.71694567     0.09100
H215        H  0.32565351  0.15940093  0.75449759     0.06600
H216        H  0.43409584  0.27647150  0.78747160     0.06400
In217      In  0.46836515  0.19153798  0.83964004     1.36900
C218        C  0.02516898  0.26664559  0.87461639     0.77900
O219        O  0.99841734  0.15241839  0.82902455    -0.60500
O220        O  0.01411602  0.20005811  0.78279185    -0.51400
C221        C  0.41741222  0.12818550  0.89341829     0.70600
O222        O  0.44585529  0.16280732  0.90748584    -0.46300
C223        C  0.40765851  0.19927611  0.79664438     0.75300
O224        O  0.52269649  0.23324953  0.88784137    -0.58100
O225        O  0.42955320  0.18656446  0.77761036    -0.48200
O226        O  0.99878446  0.26093172  0.84495145    -0.54600
C227        C  0.01903959  0.17026365  0.79510228     0.85500
O228        O  0.41392423  0.12665512  0.85215827    -0.56500
O229        O  0.41638308  0.20683758  0.83695129    -0.59800
C230        C  0.12122063  0.98944296  0.60986460     0.03500
C231        C  0.14077532  0.02854670  0.62926582    -0.12700
C232        C  0.18156907  0.05835955  0.61856413     0.01000
C233        C  0.20538429  0.04594616  0.59201646    -0.11200
C234        C  0.18646946  0.00442599  0.57546159     0.03500
C235        C  0.14407535  0.47799108  0.58277267    -0.10600
H236        H  0.12255473  0.03692097  0.65027338     0.09100
H237        H  0.23744962  0.06785855  0.58436097     0.06600
H238        H  0.12849325  0.44801725  0.56665460     0.06400
C239        C  0.31403132  0.33553394  0.56675554     0.03500
C240        C  0.29743387  0.35957089  0.55073741    -0.12700
C241        C  0.25462083  0.34551037  0.55317361     0.01000
C242        C  0.22833297  0.30606650  0.57336278    -0.11200
C243        C  0.24565025  0.28089059  0.58759117     0.03500
C244        C  0.28816296  0.29596626  0.58271178    -0.10600
H245        H  0.31847008  0.39056813  0.53864870     0.09100
H246        H  0.19555187  0.29535241  0.57787910     0.06600
H247        H  0.30217026  0.27833317  0.59573885     0.06400
In248      In  0.20985302  0.17664513  0.66644228     1.36900
C249        C  0.28283953  0.19721055  0.70965238     0.77900
O250        O  0.18107474  0.10708116  0.67044837    -0.60500
O251        O  0.21651011  0.13462936  0.61390500    -0.51400
C252        C  0.13909746  0.16767699  0.70495700     0.70600
O253        O  0.17364224  0.18329217  0.72513503    -0.46300
C254        C  0.22498450  0.24253178  0.61484395     0.75300
O255        O  0.24784519  0.17277715  0.72620410    -0.58100
O256        O  0.21135221  0.20646639  0.59942283    -0.48200
O257        O  0.27991765  0.21062810  0.67237822    -0.54600
C258        C  0.19487351  0.10137377  0.63492545     0.85500
O259        O  0.14146817  0.15821142  0.66568997    -0.56500
O260        O  0.22924720  0.24419713  0.65611301    -0.59800
C261        C  0.41625134  0.03757534  0.94374391     0.03500
C262        C  0.37492126  0.51100478  0.95584082    -0.12700
C263        C  0.34450783  0.02302323  0.95066833     0.01000
C264        C  0.35667051  0.06224451  0.93023926    -0.11200
C265        C  0.39967974  0.08994854  0.92073441     0.03500
C266        C  0.42878235  0.07761485  0.93021723    -0.10600
H267        H  0.36600236  0.47999847  0.96709495     0.09100
H268        H  0.33356186  0.07126903  0.92274715     0.06600
H269        H  0.46106741  0.09731418  0.92071707     0.06400
In270      In  0.22654737  0.43489895  0.50201444     1.36900
C271        C  0.20689948  0.48581337  0.54869937     0.77900
O272        O  0.29688586  0.47429847  0.50375093    -0.60500
O273        O  0.26754796  0.48233274  0.94789994    -0.51400
C274        C  0.24097327  0.37464531  0.53513087     0.70600
O275        O  0.22058568  0.38793354  0.55612392    -0.46300
C276        C  0.15570846  0.38226644  0.95716308     0.75300
O277        O  0.22731501  0.46990919  0.56510264    -0.58100
O278        O  0.18966775  0.40665074  0.93832591    -0.48200
O279        O  0.19784637  0.47670050  0.00878258    -0.54600
C280        C  0.30166233  0.49317227  0.96774171     0.85500
O281        O  0.25332184  0.39193493  0.99812617    -0.56500
O282        O  0.15849784  0.38374479  0.49847666    -0.59800
C283        C  0.41717057  0.39041615  0.62516911    -0.22100
C284        C  0.44391581  0.39092579  0.59275359     0.09900
C285        C  0.42772121  0.37062861  0.55234378     0.10300
C286        C  0.38492374  0.35291368  0.54396662    -0.17000
C287        C  0.35862758  0.35443269  0.57579822    -0.27400
C288        C  0.37453705  0.37199855  0.61738455     0.18600
C289        C  0.48890024  0.41607535  0.60075363     0.12600
C290        C  0.45548632  0.36795712  0.51821674    -0.11800
H291        H  0.37196832  0.33799497  0.51274893     0.12800
C292        C  0.34668353  0.37152950  0.65357080    -0.22600
H293        H  0.42988941  0.40562733  0.65604710     0.08500
C294        C  0.00824122  0.45961567  0.60128617     0.04800
C295        C  0.05142412  0.48265717  0.60515872    -0.19900
C296        C  0.07542071  0.46332421  0.61224795    -0.12100
C297        C  0.05519894  0.41972468  0.61700888     0.13500
C298        C  0.01233713  0.39649827  0.60880259    -0.22600
C299        C  0.48356622  0.48188727  0.59691998    -0.05600
H300        H  0.06651920  0.01602792  0.60157432     0.15100
C301        C  0.07756117  0.39713836  0.63211005    -0.15800
H302        H  0.49688821  0.36295717  0.60968108     0.09400
H303        H  0.32972036  0.38764652  0.64242945     0.07200
H304        H  0.36463702  0.38722054  0.68369344     0.08400
H305        H  0.32392520  0.33905348  0.66251385     0.07500
H306        H  0.47201978  0.35242912  0.53220001     0.02400
H307        H  0.47865906  0.39943801  0.50695582     0.02900
H308        H  0.43730724  0.34941998  0.48949390     0.06400
H309        H  0.00400037  0.51606271  0.09682087     0.05300
H310        H  0.46228913  0.47419052  0.62517330    -0.00400
H311        H  0.46499538  0.47261194  0.56601319     0.01000
H312        H  0.06150259  0.37752036  0.66102348     0.04700
H313        H  0.11004231  0.41844404  0.64272754     0.06600
H314        H  0.07761405  0.37707190  0.60528960     0.07500
C315        C  0.05405780  0.47594397  0.90047099    -0.22100
C316        C  0.51176238  0.45954964  0.90920280     0.09900
C317        C  0.48513955  0.41635604  0.91119847     0.10300
C318        C  0.50227607  0.39037458  0.90849333    -0.17000
C319        C  0.04505095  0.40654626  0.90111689    -0.27400
C320        C  0.07077055  0.44981378  0.89435976     0.18600
C321        C  0.49507219  0.48750421  0.91637651     0.12600
C322        C  0.43876142  0.39783472  0.91686996    -0.11800
H323        H  0.48223571  0.35736636  0.91339969     0.12800
C324        C  0.11526787  0.46938772  0.87905921    -0.22600
H325        H  0.07378180  0.50917085  0.89701556     0.08500
C326        C  0.49649224  0.50400026  0.95829844     0.04800
C327        C  0.47023423  0.52021531  0.96714862    -0.19900
C328        C  0.44417895  0.52129095  0.93411672    -0.12100
C329        C  0.44711247  0.50976761  0.89061121     0.13500
C330        C  0.47246693  0.49264483  0.88238594    -0.22600
C331        C  0.02581109  0.50449413  0.99316013    -0.05600
H332        H  0.46973795  0.03166531  0.99969421     0.15100
C333        C  0.42323180  0.51508550  0.85300223    -0.15800
H334        H  0.47360105  0.48178140  0.84982413     0.09400
H335        H  0.13650566  0.48957962  0.90535196     0.07200
H336        H  0.11944065  0.48863452  0.84942721     0.08400
H337        H  0.12444525  0.44633265  0.86951975     0.07500
H338        H  0.42556451  0.40669458  0.88873133     0.02400
H339        H  0.43217104  0.40924933  0.94773771     0.02900
H340        H  0.42250535  0.36347646  0.91796555     0.06400
H341        H  0.02578844  0.02195144  0.02247830     0.05300
H342        H  0.05809199  0.52027585  0.98038004    -0.00400
H343        H  0.51702527  0.47241309  0.00289348     0.01000
H344        H  0.42884066  0.50383340  0.82145621     0.04700
H345        H  0.43323224  0.54837860  0.84855902     0.06600
H346        H  0.38933905  0.49756445  0.85981735     0.07500
C347        C  0.45384332  0.47673367  0.72302736    -0.22100
C348        C  0.47086635  0.45628453  0.74689117     0.09900
C349        C  0.50939319  0.47901872  0.76877169     0.10300
C350        C  0.52919838  0.02212789  0.76810020    -0.17300
C351        C  0.01192436  0.04258001  0.74468815    -0.27400
C352        C  0.97406690  0.01989001  0.72145375     0.18600
C353        C  0.44829947  0.41097790  0.74804544     0.12600
C354        C  0.52956866  0.45795314  0.79282891    -0.11800
H355        H  0.05842804  0.04006587  0.78556788     0.12800
C356        C  0.95463092  0.04001823  0.69424534    -0.22600
H357        H  0.42476181  0.45889702  0.70523167     0.08500
C358        C  0.41076521  0.38864463  0.77147113     0.04800
C359        C  0.39151537  0.34557383  0.77269637    -0.19900
C360        C  0.40858336  0.32480590  0.75036407    -0.12100
C361        C  0.44570840  0.34698827  0.72643864     0.13500
C362        C  0.46525235  0.39009669  0.72556093    -0.22600
C363        C  0.39094505  0.40985900  0.79517589    -0.05600
H364        H  0.36286116  0.32786851  0.79088490     0.15100
C365        C  0.46401149  0.32527051  0.70099011    -0.15800
H366        H  0.99352802  0.40768371  0.70675834     0.09400
H367        H  0.92320672  0.03073414  0.70715680     0.07200
H368        H  0.95151294  0.02960144  0.65961716     0.08400
H369        H  0.97311465  0.07428042  0.69416992     0.07500
H370        H  0.53783560  0.44046984  0.76945226     0.02400
H371        H  0.50792596  0.43631673  0.81780800     0.02900
H372        H  0.55875095  0.48080379  0.80939548     0.06400
H373        H  0.36194996  0.38732210  0.81221610     0.05300
H374        H  0.38273660  0.42758726  0.77157365    -0.00400
H375        H  0.41273396  0.43111917  0.82017871     0.01000
H376        H  0.44118095  0.30440547  0.67613700     0.04700
H377        H  0.49272647  0.34765623  0.68392014     0.06600
H378        H  0.47270641  0.30712025  0.72339522     0.07500
C379        C  0.03483058  0.58770053  0.24491008     0.03500
C380        C  0.01927919  0.60917159  0.26771346    -0.12700
C381        C  0.04120733  0.65239761  0.26994740     0.01000
C382        C  0.08148083  0.67431250  0.24956823    -0.11200
C383        C  0.09764748  0.65150570  0.22681209     0.03500
C384        C  0.07317322  0.60852102  0.22446607    -0.10600
H385        H  0.48923110  0.59163533  0.28347652     0.09100
H386        H  0.09964114  0.70774275  0.25164058     0.06600
H387        H  0.08460617  0.59054626  0.20747123     0.06400
C388        C  0.06211784  0.87800068  0.40453867     0.03500
C389        C  0.04096499  0.83862822  0.38569264    -0.12700
C390        C  0.05373711  0.80920548  0.39288845     0.01000
C391        C  0.09175758  0.82179686  0.41676430    -0.11200
C392        C  0.11461773  0.86297904  0.43391998     0.03500
C393        C  0.09771366  0.88904100  0.42978622    -0.10600
H394        H  0.51317948  0.83042862  0.36638483     0.09100
H395        H  0.10335121  0.80041546  0.42149442     0.06600
H396        H  0.11309399  0.91895988  0.44601081     0.06400
C397        C  0.38606398  0.77969701  0.25136248     0.03500
C398        C  0.34673456  0.75824940  0.23242572    -0.12700
C399        C  0.32399602  0.71503050  0.23309674     0.01000
C400        C  0.34235168  0.69289841  0.25373417    -0.11200
C401        C  0.38323136  0.71564521  0.27300834     0.03500
C402        C  0.40370264  0.75871410  0.27191800    -0.10600
H403        H  0.33371271  0.77574544  0.21694585     0.09100
H404        H  0.32565282  0.65940081  0.25449849     0.06600
H405        H  0.43409452  0.77647136  0.28747339     0.06400
In406      In  0.46836463  0.69153800  0.33964064     1.36900
C407        C  0.02516846  0.76664590  0.37461659     0.77900
O408        O  0.99841679  0.65241839  0.32902531    -0.60500
O409        O  0.01411560  0.70005800  0.28279251    -0.51400
C410        C  0.41741185  0.62818530  0.39341871     0.70600
O411        O  0.44585455  0.66280728  0.40748641    -0.46300
C412        C  0.40765761  0.69927596  0.29664563     0.75300
O413        O  0.52269506  0.73324970  0.38784269    -0.58100
O414        O  0.42955226  0.68656441  0.27761136    -0.48200
O415        O  0.99878468  0.76093211  0.34495082    -0.54600
C416        C  0.01903916  0.67026356  0.29510308     0.85500
O417        O  0.41392425  0.62665487  0.35215865    -0.56500
O418        O  0.41638228  0.70683731  0.33695254    -0.59800
C419        C  0.12122013  0.48944278  0.10986433     0.03500
C420        C  0.14077487  0.52854664  0.12926536    -0.12700
C421        C  0.18156854  0.55835955  0.11856343     0.01000
C422        C  0.20538369  0.54594616  0.09201561    -0.11200
C423        C  0.18646876  0.50442591  0.07546080     0.03500
C424        C  0.14407521  0.97799091  0.08277290    -0.10600
H425        H  0.12255439  0.53692081  0.15027310     0.09100
H426        H  0.23744887  0.56785846  0.08435999     0.06600
H427        H  0.12849305  0.94801703  0.06665515     0.06400
C428        C  0.31403108  0.83553438  0.06675584     0.03500
C429        C  0.29743349  0.85957100  0.05073733    -0.12700
C430        C  0.25462040  0.84551021  0.05317313     0.01000
C431        C  0.22833260  0.80606629  0.07336224    -0.11200
C432        C  0.24564997  0.78089062  0.08759103     0.03500
C433        C  0.28816284  0.79596664  0.08271210    -0.10600
H434        H  0.31846970  0.89056841  0.03864862     0.09100
H435        H  0.19555126  0.79535195  0.07787833     0.06600
H436        H  0.30217023  0.77833381  0.09573941     0.06400
In437      In  0.20985265  0.67664513  0.16644233     1.36900
C438        C  0.28283898  0.69721040  0.20965290     0.77900
O439        O  0.18107368  0.60708103  0.17044753    -0.60500
O440        O  0.21651044  0.63462956  0.11390510    -0.51400
C441        C  0.13909721  0.66767736  0.20495729     0.70600
O442        O  0.17364199  0.68329208  0.22513528    -0.46300
C443        C  0.22498421  0.74253177  0.11484383     0.75300
O444        O  0.24784454  0.67277733  0.22620459    -0.58100
O445        O  0.21135184  0.70646635  0.09942278    -0.48200
O446        O  0.27991733  0.71062773  0.17237851    -0.54600
C447        C  0.19487306  0.60137379  0.13492495     0.85500
O448        O  0.14146783  0.65821206  0.16569013    -0.56500
O449        O  0.22924687  0.74419712  0.15611288    -0.59800
C450        C  0.41625100  0.53757509  0.44374412     0.03500
C451        C  0.37492088  0.01100445  0.45584068    -0.12700
C452        C  0.34450748  0.52302296  0.45066867     0.01000
C453        C  0.35667013  0.56224429  0.43023966    -0.11200
C454        C  0.39967935  0.58994833  0.42073483     0.03500
C455        C  0.42878198  0.57761465  0.43021753    -0.10600
H456        H  0.36600199  0.97999802  0.46709480     0.09100
H457        H  0.33356151  0.57126880  0.42274759     0.06600
H458        H  0.46106694  0.59731396  0.42071732     0.06400
In459      In  0.22654766  0.93489920  0.00201402     1.36900
C460        C  0.20689915  0.98581337  0.04869870     0.77900
O461        O  0.29688606  0.97429951  0.00375105    -0.60500
O462        O  0.26754744  0.98233317  0.44790078    -0.51400
C463        C  0.24097291  0.87464512  0.03513035     0.70600
O464        O  0.22058632  0.88793422  0.05612384    -0.46300
C465        C  0.15570811  0.88226648  0.45716326     0.75300
O466        O  0.22731579  0.96991030  0.06510176    -0.58100
O467        O  0.18966765  0.90665029  0.43832626    -0.48200
O468        O  0.19784829  0.97670200  0.50878306    -0.54600
C469        C  0.30166196  0.99317192  0.46774187     0.85500
O470        O  0.25332341  0.89193618  0.49812722    -0.56500
O471        O  0.15849832  0.88374489  0.99847664    -0.59800
C472        C  0.41717009  0.89041681  0.12517000    -0.22100
C473        C  0.44391543  0.89092611  0.09275480     0.09900
C474        C  0.42772103  0.87062911  0.05234486     0.10300
C475        C  0.38492359  0.85291421  0.04396744    -0.17000
C476        C  0.35862732  0.85443342  0.07579874    -0.27400
C477        C  0.37453665  0.87199970  0.11738495     0.18600
C478        C  0.48889985  0.91607549  0.10075510     0.12600
C479        C  0.45548627  0.86795773  0.01821795    -0.11800
H480        H  0.37196832  0.83799543  0.01274974     0.12800
C481        C  0.34668313  0.87153176  0.15357056    -0.22600
H482        H  0.42988876  0.90562795  0.15604791     0.08500
C483        C  0.00824141  0.95961593  0.10128653     0.04800
C484        C  0.05142433  0.98265736  0.10515923    -0.19900
C485        C  0.07542079  0.96332426  0.11224871    -0.12100
C486        C  0.05519891  0.91972476  0.11700984     0.13500
C487        C  0.01233706  0.89649844  0.10880346    -0.22600
C488        C  0.48356622  0.98188762  0.09692062    -0.05600
H489        H  0.06651850  0.51602763  0.10157466     0.15100
C490        C  0.07756100  0.89713841  0.13211137    -0.15800
H491        H  0.49688760  0.86295711  0.10968278     0.09400
H492        H  0.32972064  0.88764923  0.14242839     0.07200
H493        H  0.36463662  0.88722309  0.18369320     0.08400
H494        H  0.32392431  0.83905609  0.16251397     0.07500
H495        H  0.47201961  0.85242962  0.03220130     0.02400
H496        H  0.47865908  0.89943863  0.00695721     0.02900
H497        H  0.43730732  0.84942073  0.98949500     0.06400
H498        H  0.00400128  0.01606337  0.59682099     0.05300
H499        H  0.46228907  0.97419119  0.12517383    -0.00400
H500        H  0.46499546  0.97261221  0.06601378     0.01000
H501        H  0.06150230  0.87752059  0.16102492     0.04700
H502        H  0.11004216  0.91844409  0.14272887     0.06600
H503        H  0.07761389  0.87707176  0.10529119     0.07500
C504        C  0.05405809  0.97594479  0.40047000    -0.22100
C505        C  0.51176301  0.95955054  0.40920231     0.09900
C506        C  0.48514017  0.91635696  0.41119834     0.10300
C507        C  0.50227656  0.89037542  0.40849288    -0.17000
C508        C  0.04505110  0.90654699  0.40111629    -0.27400
C509        C  0.07077077  0.94981451  0.39435898     0.18600
C510        C  0.49507279  0.98750508  0.41637601     0.12600
C511        C  0.43876214  0.89783579  0.41687053    -0.11800
H512        H  0.48223620  0.85736723  0.41339948     0.12800
C513        C  0.11526807  0.96938827  0.37905843    -0.22600
H514        H  0.07378219  0.00917171  0.39701434     0.08500
C515        C  0.49649247  0.00400071  0.45829804     0.04800
C516        C  0.47023404  0.02021526  0.46714841    -0.19900
C517        C  0.44417863  0.02129072  0.43411652    -0.12100
C518        C  0.44711237  0.00976768  0.39061095     0.13500
C519        C  0.47246731  0.99264549  0.38238553    -0.22600
C520        C  0.02581133  0.00449458  0.49315959    -0.05600
H521        H  0.46973780  0.53166496  0.49969421     0.15100
C522        C  0.42323144  0.01508530  0.35300205    -0.15800
H523        H  0.47360155  0.98178219  0.34982362     0.09400
H524        H  0.13650588  0.98958015  0.40535116     0.07200
H525        H  0.11944095  0.98863508  0.34942640     0.08400
H526        H  0.12444532  0.94633309  0.36951901     0.07500
H527        H  0.42556491  0.90669551  0.38873202     0.02400
H528        H  0.43217222  0.90925068  0.44773830     0.02900
H529        H  0.42250600  0.86347755  0.41796641     0.06400
H530        H  0.02578834  0.52195118  0.52247833     0.05300
H531        H  0.05809226  0.02027647  0.48037966    -0.00400
H532        H  0.51702563  0.97241349  0.50289283     0.01000
H533        H  0.42884060  0.00383358  0.32145598     0.04700
H534        H  0.43323139  0.04837833  0.34855904     0.06600
H535        H  0.38933870  0.99756378  0.35981715     0.07500
C536        C  0.45384401  0.97673419  0.22302727    -0.22100
C537        C  0.47086661  0.95628465  0.24689111     0.09900
C538        C  0.50939329  0.97901856  0.26877205     0.10300
C539        C  0.52919834  0.52212763  0.26810098    -0.17300
C540        C  0.01192460  0.54258012  0.24468878    -0.27400
C541        C  0.97406720  0.51989032  0.22145427     0.18600
C542        C  0.44829931  0.91097793  0.24804542     0.12600
C543        C  0.52956856  0.95795261  0.29282889    -0.11800
H544        H  0.05842811  0.54006565  0.28556844     0.12800
C545        C  0.95463127  0.54001875  0.19424613    -0.22600
H546        H  0.42476267  0.95889783  0.20523122     0.08500
C547        C  0.41076505  0.88864499  0.27147123     0.04800
C548        C  0.39151495  0.84557418  0.27269683    -0.19900
C549        C  0.40858267  0.82480583  0.25036492    -0.12100
C550        C  0.44570781  0.84698784  0.22643954     0.13500
C551        C  0.46525201  0.89009630  0.22556138    -0.22600
C552        C  0.39094527  0.90985979  0.29517582    -0.05600
H553        H  0.36286061  0.82786911  0.29088548     0.15100
C554        C  0.46401073  0.82526964  0.20099147    -0.15800
H555        H  0.99352750  0.90768303  0.20675843     0.09400
H556        H  0.92320720  0.53073478  0.20715781     0.07200
H557        H  0.95151317  0.52960205  0.15961792     0.08400
H558        H  0.97311517  0.57428098  0.19417081     0.07500
H559        H  0.53783544  0.94046946  0.26945192     0.02400
H560        H  0.50792581  0.93631598  0.31780780     0.02900
H561        H  0.55875086  0.98080299  0.30939552     0.06400
H562        H  0.36195013  0.88732321  0.31221613     0.05300
H563        H  0.38273708  0.92758816  0.27157344    -0.00400
H564        H  0.41273434  0.93111992  0.32017859     0.01000
H565        H  0.44118016  0.80440444  0.17613851     0.04700
H566        H  0.49272579  0.84765499  0.18392150     0.06600
H567        H  0.47270541  0.80711936  0.22339698     0.07500
C568        C  0.03482988  0.58769999  0.74490857     0.03500
C569        C  0.01927855  0.60917127  0.76771165    -0.12700
C570        C  0.04120711  0.65239723  0.76994592     0.01000
C571        C  0.08148087  0.67431196  0.74956728    -0.11200
C572        C  0.09764731  0.65150493  0.72681117     0.03500
C573        C  0.07317274  0.60852032  0.72446495    -0.10600
H574        H  0.48923020  0.59163496  0.78347390     0.09100
H575        H  0.09964140  0.70774198  0.75163996     0.06600
H576        H  0.08460569  0.59054537  0.70747027     0.06400
C577        C  0.06211785  0.87799997  0.90453931     0.03500
C578        C  0.04096533  0.83862773  0.88569272    -0.12700
C579        C  0.05373771  0.80920510  0.89288802     0.01000
C580        C  0.09175817  0.82179653  0.91676388    -0.11200
C581        C  0.11461787  0.86297847  0.93392029     0.03500
C582        C  0.09771350  0.88904019  0.92978702    -0.10600
H583        H  0.51317989  0.83042801  0.86638507     0.09100
H584        H  0.10335213  0.80041532  0.92149351     0.06600
H585        H  0.11309364  0.91895898  0.94601198     0.06400
C586        C  0.38606506  0.77969725  0.75136025     0.03500
C587        C  0.34673569  0.75824962  0.73242326    -0.12700
C588        C  0.32399704  0.71503073  0.73309453     0.01000
C589        C  0.34235259  0.69289859  0.75373210    -0.11200
C590        C  0.38323235  0.71564537  0.77300623     0.03500
C591        C  0.40370366  0.75871424  0.77191575    -0.10600
H592        H  0.33371388  0.77574565  0.71694333     0.09100
H593        H  0.32565366  0.65940114  0.75449662     0.06600
H594        H  0.43409561  0.77647153  0.78747133     0.06400
In595      In  0.46836499  0.69153776  0.83963967     1.36900
C596        C  0.02516912  0.76664558  0.87461587     0.77900
O597        O  0.99841758  0.65241855  0.82902449    -0.60500
O598        O  0.01411534  0.70005752  0.78279106    -0.51400
C599        C  0.41741254  0.62818556  0.89341861     0.70600
O600        O  0.44585560  0.66280755  0.90748579    -0.46300
C601        C  0.40765834  0.69927593  0.79664385     0.75300
O602        O  0.52269644  0.73324919  0.88784090    -0.58100
O603        O  0.42955317  0.68656442  0.77760991    -0.48200
O604        O  0.99878468  0.76093177  0.84495087    -0.54600
C605        C  0.01903934  0.67026340  0.79510183     0.85500
O606        O  0.41392432  0.62665487  0.85215860    -0.56500
O607        O  0.41638261  0.70683705  0.83695087    -0.59800
C608        C  0.12122037  0.48944255  0.60986507     0.03500
C609        C  0.14077527  0.52854636  0.62926614    -0.12700
C610        C  0.18156885  0.55835922  0.61856402     0.01000
C611        C  0.20538385  0.54594576  0.59201608    -0.11200
C612        C  0.18646890  0.50442553  0.57546143     0.03500
C613        C  0.14407581  0.97799156  0.58277245    -0.10600
H614        H  0.12255480  0.53692076  0.65027402     0.09100
H615        H  0.23744907  0.56785812  0.58436031     0.06600
H616        H  0.12849377  0.94801778  0.56665425     0.06400
C617        C  0.31403117  0.83553360  0.56675451     0.03500
C618        C  0.29743370  0.85957045  0.55073620    -0.12700
C619        C  0.25462070  0.84551013  0.55317282     0.01000
C620        C  0.22833295  0.80606643  0.57336240    -0.11200
C621        C  0.24565016  0.78089048  0.58759076     0.03500
C622        C  0.28816286  0.79596605  0.58271115    -0.10600
H623        H  0.31846996  0.89056763  0.53864715     0.09100
H624        H  0.19555178  0.79535243  0.57787903     0.06600
H625        H  0.30217017  0.77833307  0.59573823     0.06400
In626      In  0.20985284  0.67664491  0.66644174     1.36900
C627        C  0.28283968  0.69721050  0.70965124     0.77900
O628        O  0.18107565  0.60708111  0.67044860    -0.60500
O629        O  0.21650907  0.63462895  0.61390401    -0.51400
C630        C  0.13909711  0.66767654  0.70495653     0.70600
O631        O  0.17364193  0.68329180  0.72513451    -0.46300
C632        C  0.22498443  0.74253167  0.61484359     0.75300
O633        O  0.24784544  0.67277763  0.72620350    -0.58100
O634        O  0.21135152  0.70646621  0.59942243    -0.48200
O635        O  0.27991759  0.71062746  0.67237680    -0.54600
C636        C  0.19487347  0.60137354  0.63492511     0.85500
O637        O  0.14146785  0.65821102  0.66568949    -0.56500
O638        O  0.22924762  0.74419701  0.65611259    -0.59800
C639        C  0.41625174  0.53757574  0.94374497     0.03500
C640        C  0.37492097  0.01100456  0.95584019    -0.12700
C641        C  0.34450812  0.52302342  0.95066871     0.01000
C642        C  0.35667085  0.56224472  0.93023972    -0.11200
C643        C  0.39968012  0.58994885  0.92073516     0.03500
C644        C  0.42878277  0.57761534  0.93021853    -0.10600
H645        H  0.36600206  0.97999823  0.96709448     0.09100
H646        H  0.33356222  0.57126916  0.92274741     0.06600
H647        H  0.46106789  0.59731479  0.92071870     0.06400
In648      In  0.22654752  0.93489918  0.50201433     1.36900
C649        C  0.20690011  0.98581390  0.54869948     0.77900
O650        O  0.29688597  0.97429817  0.50375056    -0.60500
O651        O  0.26754768  0.98233201  0.94789967    -0.51400
C652        C  0.24097317  0.87464517  0.53513029     0.70600
O653        O  0.22058540  0.88793318  0.55612340    -0.46300
C654        C  0.15570834  0.88226614  0.95716325     0.75300
O655        O  0.22731534  0.96990935  0.56510272    -0.58100
O656        O  0.18966757  0.90665054  0.93832607    -0.48200
O657        O  0.19784634  0.97670021  0.00878265    -0.54600
C658        C  0.30166210  0.99317210  0.96774157     0.85500
O659        O  0.25332237  0.89193520  0.99812676    -0.56500
O660        O  0.15849782  0.88374559  0.49847665    -0.59800
C661        C  0.41717011  0.89041565  0.62516884    -0.22100
C662        C  0.44391555  0.89092532  0.59275353     0.09900
C663        C  0.42772123  0.87062836  0.55234356     0.10300
C664        C  0.38492379  0.85291340  0.54396610    -0.17000
C665        C  0.35862743  0.85443244  0.57579739    -0.27400
C666        C  0.37453666  0.87199837  0.61738376     0.18600
C667        C  0.48889998  0.91607503  0.60075377     0.12600
C668        C  0.45548660  0.86795701  0.51821679    -0.11800
H669        H  0.37196852  0.83799463  0.51274826     0.12800
C670        C  0.34668297  0.87152975  0.65356957    -0.22600
H671        H  0.42988866  0.90562656  0.65604688     0.08500
C672        C  0.00824131  0.95961569  0.60128568     0.04800
C673        C  0.05142427  0.98265737  0.60515780    -0.19900
C674        C  0.07542094  0.96332451  0.61224729    -0.12100
C675        C  0.05519930  0.91972504  0.61700858     0.13500
C676        C  0.01233745  0.89649846  0.60880236    -0.22600
C677        C  0.48356558  0.98188676  0.59692007    -0.05600
H678        H  0.06651920  0.51602793  0.60157544     0.15100
C679        C  0.07756169  0.89713901  0.63211020    -0.15800
H680        H  0.49688838  0.86295709  0.60968114     0.09400
H681        H  0.32972007  0.88764689  0.64242773     0.07200
H682        H  0.36463634  0.88722091  0.68369224     0.08400
H683        H  0.32392441  0.83905382  0.66251269     0.07500
H684        H  0.47201999  0.85242900  0.53220027     0.02400
H685        H  0.47865947  0.89943797  0.50695606     0.02900
H686        H  0.43730778  0.84941994  0.48949386     0.06400
H687        H  0.00400173  0.01606375  0.09682124     0.05300
H688        H  0.46228867  0.97419004  0.62517357    -0.00400
H689        H  0.46499451  0.97261127  0.56601341     0.01000
H690        H  0.06150279  0.87752074  0.66102345     0.04700
H691        H  0.11004258  0.91844488  0.64272826     0.06600
H692        H  0.07761521  0.87707281  0.60528988     0.07500
C693        C  0.05405747  0.97594372  0.90047115    -0.22100
C694        C  0.51176200  0.95954884  0.90920321     0.09900
C695        C  0.48513934  0.91635522  0.91119869     0.10300
C696        C  0.50227602  0.89037392  0.90849336    -0.17000
C697        C  0.04505093  0.90654612  0.90111710    -0.27400
C698        C  0.07077047  0.94981373  0.89436016     0.18600
C699        C  0.49507156  0.98750329  0.91637656     0.12600
C700        C  0.43876116  0.89783368  0.91686997    -0.11800
H701        H  0.48223572  0.85736562  0.91339946     0.12800
C702        C  0.11526795  0.96938792  0.87906007    -0.22600
H703        H  0.07378147  0.00917073  0.89701573     0.08500
C704        C  0.49649183  0.00399993  0.95829813     0.04800
C705        C  0.47023390  0.02021521  0.96714804    -0.19900
C706        C  0.44417856  0.02129048  0.93411590    -0.12100
C707        C  0.44711201  0.00976671  0.89061062     0.13500
C708        C  0.47246620  0.99264350  0.88238575    -0.22600
C709        C  0.02581107  0.00449459  0.99315957    -0.05600
H710        H  0.46973815  0.53166509  0.99969529     0.15100
C711        C  0.42323165  0.01508461  0.85300132    -0.15800
H712        H  0.47360011  0.98177961  0.84982433     0.09400
H713        H  0.13650539  0.98957991  0.90535300     0.07200
H714        H  0.11944087  0.98863470  0.84942804     0.08400
H715        H  0.12444568  0.94633304  0.86952091     0.07500
H716        H  0.42556430  0.90669343  0.88873117     0.02400
H717        H  0.43217055  0.90924824  0.94773759     0.02900
H718        H  0.42250524  0.86347543  0.91796562     0.06400
H719        H  0.02578831  0.52195076  0.02247901     0.05300
H720        H  0.05809188  0.02027621  0.98037926    -0.00400
H721        H  0.51702498  0.97241331  0.00289380     0.01000
H722        H  0.42884058  0.00383228  0.82145549     0.04700
H723        H  0.43323237  0.04837779  0.84855783     0.06600
H724        H  0.38933891  0.99756385  0.85981628     0.07500
C725        C  0.45384395  0.97673442  0.72302768    -0.22100
C726        C  0.47086654  0.95628496  0.74689173     0.09900
C727        C  0.50939323  0.97901892  0.76877264     0.10300
C728        C  0.52919818  0.52212764  0.76809893    -0.17300
C729        C  0.01192393  0.54257959  0.74468784    -0.27400
C730        C  0.97406625  0.51988945  0.72145385     0.18600
C731        C  0.44829955  0.91097826  0.74804551     0.12600
C732        C  0.52956846  0.95795309  0.79282988    -0.11800
H733        H  0.05842795  0.54006571  0.78556722     0.12800
C734        C  0.95462982  0.54001749  0.69424590    -0.22600
H735        H  0.42476263  0.95889798  0.70523161     0.08500
C736        C  0.41076484  0.88864469  0.77147038     0.04800
C737        C  0.39151504  0.84557387  0.77269530    -0.19900
C738        C  0.40858344  0.82480612  0.75036338    -0.12100
C739        C  0.44570882  0.84698880  0.72643858     0.13500
C740        C  0.46525281  0.89009726  0.72556126    -0.22600
C741        C  0.39094418  0.90985877  0.79517471    -0.05600
H742        H  0.36286051  0.82786837  0.79088335     0.15100
C743        C  0.46401223  0.82527132  0.70099010    -0.15800
H744        H  0.99352835  0.90768412  0.70675903     0.09400
H745        H  0.92320584  0.53073338  0.70715798     0.07200
H746        H  0.95151140  0.52960059  0.65961772     0.08400
H747        H  0.97311350  0.57427969  0.69417027     0.07500
H748        H  0.53783561  0.94046997  0.76945320     0.02400
H749        H  0.50792557  0.93631645  0.81780867     0.02900
H750        H  0.55875063  0.98080357  0.80939675     0.06400
H751        H  0.36194855  0.88732160  0.81221399     0.05300
H752        H  0.38273642  0.92758748  0.77157238    -0.00400
H753        H  0.41273241  0.93111835  0.82017829     0.01000
H754        H  0.44118199  0.80440666  0.67613654     0.04700
H755        H  0.49272748  0.84765722  0.68392069     0.06600
H756        H  0.47270670  0.80712068  0.72339514     0.07500
C757        C  0.53483625  0.08769964  0.24492469     0.03500
C758        C  0.51928342  0.10917087  0.26772588    -0.12700
C759        C  0.54121033  0.15239707  0.26995730     0.01000
C760        C  0.58148347  0.17431236  0.24957743    -0.11200
C761        C  0.59765183  0.15150559  0.22682425     0.03500
C762        C  0.57317958  0.10852059  0.22448192    -0.10600
H763        H  0.98922637  0.09163537  0.28346277     0.09100
H764        H  0.59964206  0.20774269  0.25164681     0.06600
H765        H  0.58461388  0.09054605  0.20748865     0.06400
C766        C  0.56212027  0.37799940  0.40453657     0.03500
C767        C  0.54096747  0.33862675  0.38569107    -0.12700
C768        C  0.55373853  0.30920347  0.39288920     0.01000
C769        C  0.59175860  0.32179489  0.41676612    -0.11200
C770        C  0.61461868  0.36297748  0.43392116     0.03500
C771        C  0.59771485  0.38903943  0.42978589    -0.10600
H772        H  0.01317764  0.33042969  0.36638590     0.09100
H773        H  0.60335187  0.30041331  0.42149760     0.06600
H774        H  0.61309486  0.41895852  0.44601001     0.06400
C775        C  0.88606567  0.27969959  0.25135625     0.03500
C776        C  0.84673666  0.25825109  0.23241931    -0.12700
C777        C  0.82399814  0.21503235  0.23309303     0.01000
C778        C  0.84235427  0.19290109  0.25373094    -0.11200
C779        C  0.88323419  0.21564871  0.27300405     0.03500
C780        C  0.90370487  0.25871768  0.27191303    -0.10600
H781        H  0.83371457  0.27574641  0.21693844     0.09100
H782        H  0.82565546  0.15940351  0.25449672     0.06600
H783        H  0.93409652  0.27647560  0.28746867     0.06400
In784      In  0.96836633  0.19154011  0.33963623     1.36900
C785        C  0.52516869  0.26664349  0.37461878     0.77900
O786        O  0.49842712  0.15242463  0.32903942    -0.60500
O787        O  0.51410735  0.20004942  0.28279181    -0.51400
C788        C  0.91741659  0.12819066  0.39342012     0.70600
O789        O  0.94586598  0.16281077  0.40748409    -0.46300
C790        C  0.90766053  0.19927978  0.29664139     0.75300
O791        O  0.02269941  0.23325213  0.38783511    -0.58100
O792        O  0.92955257  0.18656498  0.27760744    -0.48200
O793        O  0.49878686  0.26093002  0.34495083    -0.54600
C794        C  0.51904132  0.17026332  0.29511077     0.85500
O795        O  0.91392047  0.12666051  0.35216086    -0.56500
O796        O  0.91638703  0.20684320  0.33694765    -0.59800
C797        C  0.62122371  0.98944301  0.10986674     0.03500
C798        C  0.64077759  0.02854650  0.12926823    -0.12700
C799        C  0.68157012  0.05836107  0.11856471     0.01000
C800        C  0.70538567  0.04594899  0.09201563    -0.11200
C801        C  0.68647181  0.00442857  0.07546110     0.03500
C802        C  0.64407908  0.47799318  0.08277290    -0.10600
H803        H  0.62255663  0.03691904  0.15027703     0.09100
H804        H  0.73745037  0.06786246  0.08435875     0.06600
H805        H  0.62849754  0.44801920  0.06665490     0.06400
C806        C  0.81402738  0.33552667  0.06674171     0.03500
C807        C  0.79743187  0.35956702  0.05072854    -0.12700
C808        C  0.75462020  0.34551126  0.05317161     0.01000
C809        C  0.72833199  0.30606950  0.07336497    -0.11200
C810        C  0.74564616  0.28088884  0.08758632     0.03500
C811        C  0.78815706  0.29595870  0.08269695    -0.10600
H812        H  0.81846922  0.39056392  0.03863922     0.09100
H813        H  0.69555264  0.29535992  0.07788838     0.06600
H814        H  0.80216268  0.27832243  0.09571908     0.06400
In815      In  0.70985317  0.17664694  0.16644398     1.36900
C816        C  0.78284016  0.19721196  0.20965182     0.77900
O817        O  0.68106171  0.10708152  0.17044110    -0.60500
O818        O  0.71652126  0.13463229  0.11391284    -0.51400
C819        C  0.63910024  0.16767827  0.20496593     0.70600
O820        O  0.67364641  0.18329274  0.22514143    -0.46300
C821        C  0.72498040  0.24253079  0.11484109     0.75300
O822        O  0.74784653  0.17277862  0.22620489    -0.58100
O823        O  0.71135652  0.20646584  0.09942236    -0.48200
O824        O  0.77991697  0.21062987  0.17237853    -0.54600
C825        C  0.69487230  0.10137513  0.13492587     0.85500
O826        O  0.64146831  0.15821391  0.16569753    -0.56500
O827        O  0.72923562  0.24419727  0.15611096    -0.59800
C828        C  0.91625249  0.03758057  0.44375025     0.03500
C829        C  0.87492115  0.51100899  0.45584149    -0.12700
C830        C  0.84450861  0.02302776  0.45066744     0.01000
C831        C  0.85667254  0.06224941  0.43023844    -0.11200
C832        C  0.89968267  0.08995414  0.42073750     0.03500
C833        C  0.92878487  0.07762082  0.43022506    -0.10600
H834        H  0.86600150  0.48000204  0.46709447     0.09100
H835        H  0.83356425  0.07127376  0.42274357     0.06600
H836        H  0.96107072  0.09732031  0.42072792     0.06400
In837      In  0.72654952  0.43490231  0.00201277     1.36900
C838        C  0.70690277  0.48581749  0.04869796     0.77900
O839        O  0.79688747  0.47430045  0.00374677    -0.60500
O840        O  0.76754803  0.48233829  0.44789987    -0.51400
C841        C  0.74097439  0.37464820  0.03513044     0.70600
O842        O  0.72059570  0.38794422  0.05612754    -0.46300
C843        C  0.65570924  0.38226642  0.45716413     0.75300
O844        O  0.72731781  0.46991264  0.06510088    -0.58100
O845        O  0.68966858  0.40664883  0.43832598    -0.48200
O846        O  0.69785123  0.47670586  0.50878149    -0.54600
C847        C  0.80166276  0.49317580  0.46773976     0.85500
O848        O  0.75331755  0.39193240  0.49812351    -0.56500
O849        O  0.65849961  0.38374922  0.99847760    -0.59800
C850        C  0.91716307  0.39040700  0.12516374    -0.22100
C851        C  0.94391141  0.39092012  0.09274976     0.09900
C852        C  0.92771989  0.37062515  0.05233825     0.10300
C853        C  0.88492288  0.35291030  0.04395711    -0.17000
C854        C  0.85862336  0.35442444  0.07578778    -0.27400
C855        C  0.87452948  0.37198644  0.11737643     0.18600
C856        C  0.98889579  0.41607124  0.10075266     0.12600
C857        C  0.95548803  0.36795545  0.01821392    -0.11800
H858        H  0.87197037  0.33799463  0.01273727     0.12800
C859        C  0.84667216  0.37150949  0.15356284    -0.22600
H860        H  0.92987903  0.40561669  0.15604259     0.08500
C861        C  0.50824582  0.45961908  0.10128838     0.04800
C862        C  0.55142864  0.48265935  0.10515920    -0.19900
C863        C  0.57542429  0.46332528  0.11224768    -0.12100
C864        C  0.55520173  0.41972575  0.11700893     0.13500
C865        C  0.51233971  0.39650041  0.10880389    -0.22600
C866        C  0.98355910  0.48188129  0.09691471    -0.05600
H867        H  0.56652457  0.01603002  0.10157725     0.15100
C868        C  0.57756242  0.39713803  0.13211047    -0.15800
H869        H  0.99688664  0.36295476  0.10968076     0.09400
H870        H  0.82970659  0.38762487  0.14242413     0.07200
H871        H  0.86462309  0.38719780  0.18368766     0.08400
H872        H  0.82391583  0.33903146  0.16250123     0.07500
H873        H  0.97201961  0.35242607  0.03219858     0.02400
H874        H  0.97866227  0.39943691  0.00695601     0.02900
H875        H  0.93731154  0.34942004  0.98948908     0.06400
H876        H  0.50400877  0.51606851  0.59682585     0.05300
H877        H  0.96228012  0.47418344  0.12516641    -0.00400
H878        H  0.96498994  0.47260510  0.06600678     0.01000
H879        H  0.56150672  0.37752587  0.16102845     0.04700
H880        H  0.61004596  0.41844240  0.14272125     0.06600
H881        H  0.57760827  0.37706548  0.10529286     0.07500
C882        C  0.55406297  0.47594489  0.40046215    -0.22100
C883        C  0.01175672  0.45954745  0.40920891     0.09900
C884        C  0.98513466  0.41635362  0.41120144     0.10300
C885        C  0.00227259  0.39037339  0.40849575    -0.17000
C886        C  0.54505452  0.40654637  0.40111215    -0.27400
C887        C  0.57077498  0.44981361  0.39435325     0.18600
C888        C  0.99506548  0.48750104  0.41638247     0.12600
C889        C  0.93875592  0.39783074  0.41686949    -0.11800
H890        H  0.98223277  0.35736478  0.41340016     0.12800
C891        C  0.61527281  0.46938600  0.37905444    -0.22600
H892        H  0.57378747  0.50917156  0.39700470     0.08500
C893        C  0.99648968  0.50400146  0.45830291     0.04800
C894        C  0.97023458  0.52021997  0.46715255    -0.19900
C895        C  0.94417804  0.52129421  0.43412132    -0.12100
C896        C  0.94710720  0.50976599  0.39061685     0.13500
C897        C  0.97245879  0.49263995  0.38239220    -0.22600
C898        C  0.52581266  0.50449290  0.49315486    -0.05600
H899        H  0.96974121  0.03167244  0.49969876     0.15100
C900        C  0.92322620  0.51508365  0.35300805    -0.15800
H901        H  0.97359055  0.48177388  0.34983111     0.09400
H902        H  0.63650999  0.48957833  0.40534734     0.07200
H903        H  0.61944744  0.48863218  0.34942145     0.08400
H904        H  0.62444972  0.44633005  0.36951737     0.07500
H905        H  0.92556035  0.40669101  0.38872980     0.02400
H906        H  0.93216290  0.40924370  0.44773686     0.02900
H907        H  0.92250070  0.36347247  0.41796363     0.06400
H908        H  0.52578641  0.02194568  0.52247614     0.05300
H909        H  0.55809431  0.52027798  0.48037666    -0.00400
H910        H  0.01702169  0.47241524  0.50290021     0.01000
H911        H  0.92883286  0.50382916  0.32146252     0.04700
H912        H  0.93322867  0.54837712  0.34856313     0.06600
H913        H  0.88933368  0.49756491  0.35982461     0.07500
C914        C  0.95384002  0.47673458  0.22301490    -0.22100
C915        C  0.97086143  0.45628640  0.24688336     0.09900
C916        C  0.00938542  0.47902120  0.26876884     0.10300
C917        C  0.02919041  0.02212976  0.26809252    -0.17300
C918        C  0.51193004  0.04257894  0.24470131    -0.27400
C919        C  0.47407164  0.01988995  0.22146804     0.18600
C920        C  0.94829577  0.41097996  0.24803798     0.12600
C921        C  0.02955774  0.45795612  0.29283313    -0.11800
H922        H  0.55843735  0.04006226  0.28557231     0.12800
C923        C  0.45463563  0.04001907  0.19426121    -0.22600
H924        H  0.92475986  0.45889723  0.20521723     0.08500
C925        C  0.91076117  0.38864607  0.27146273     0.04800
C926        C  0.89151248  0.34557540  0.27268845    -0.19900
C927        C  0.90858252  0.32480831  0.25035812    -0.12100
C928        C  0.94570802  0.34699133  0.22643383     0.13500
C929        C  0.96525098  0.39009970  0.22555576    -0.22600
C930        C  0.89094008  0.40985978  0.29516698    -0.05600
H931        H  0.86285798  0.32786960  0.29087632     0.15100
C932        C  0.96401278  0.32527422  0.20098705    -0.15800
H933        H  0.49352903  0.40768013  0.20676357     0.09400
H934        H  0.42321213  0.03073586  0.20717405     0.07200
H935        H  0.45151612  0.02960198  0.15963293     0.08400
H936        H  0.47312034  0.07428117  0.19418527     0.07500
H937        H  0.03782757  0.44047222  0.26946040     0.02400
H938        H  0.00791173  0.43632021  0.31781041     0.02900
H939        H  0.05873782  0.48080704  0.30940319     0.06400
H940        H  0.86194402  0.38732234  0.31220535     0.05300
H941        H  0.88273318  0.42758923  0.27156467    -0.00400
H942        H  0.91272784  0.43111861  0.32017143     0.01000
H943        H  0.94118394  0.30440983  0.17613231     0.04700
H944        H  0.99272890  0.34766048  0.18391956     0.06600
H945        H  0.97270640  0.30712348  0.22339290     0.07500
C946        C  0.53483660  0.08769993  0.74492414     0.03500
C947        C  0.51928367  0.10917115  0.76772519    -0.12700
C948        C  0.54121061  0.15239733  0.76995687     0.01000
C949        C  0.58148393  0.17431268  0.74957742    -0.11200
C950        C  0.59765226  0.15150590  0.72682419     0.03500
C951        C  0.57318000  0.10852093  0.72448159    -0.10600
H952        H  0.98922654  0.09163583  0.78346239     0.09100
H953        H  0.59964255  0.20774287  0.75164704     0.06600
H954        H  0.58461438  0.09054636  0.70748821     0.06400
C955        C  0.56211973  0.37799898  0.90453775     0.03500
C956        C  0.54096699  0.33862636  0.88569227    -0.12700
C957        C  0.55373831  0.30920325  0.89289003     0.01000
C958        C  0.59175856  0.32179483  0.91676664    -0.11200
C959        C  0.61461855  0.36297739  0.93392170     0.03500
C960        C  0.59771443  0.38903912  0.92978690    -0.10600
H961        H  0.01317703  0.33042929  0.86638723     0.09100
H962        H  0.60335202  0.30041335  0.92149784     0.06600
H963        H  0.61309438  0.41895816  0.94601109     0.06400
C964        C  0.88606600  0.27969949  0.75135632     0.03500
C965        C  0.84673681  0.25825106  0.73241984    -0.12700
C966        C  0.82399824  0.21503233  0.73309349     0.01000
C967        C  0.84235455  0.19290105  0.75373102    -0.11200
C968        C  0.88323469  0.21564871  0.77300372     0.03500
C969        C  0.90370533  0.25871760  0.77191269    -0.10600
H970        H  0.83371466  0.27574651  0.71693926     0.09100
H971        H  0.82565573  0.15940348  0.75449684     0.06600
H972        H  0.93409717  0.27647560  0.78746814     0.06400
In973      In  0.96836683  0.19154033  0.83963608     1.36900
C974        C  0.52516872  0.26664337  0.87461933     0.77900
O975        O  0.49842654  0.15242410  0.82903844    -0.60500
O976        O  0.51410841  0.20005025  0.78279216    -0.51400
C977        C  0.91741673  0.12819066  0.89341949     0.70600
O978        O  0.94586665  0.16281043  0.90748357    -0.46300
C979        C  0.90766118  0.19927998  0.79664104     0.75300
O980        O  0.02270023  0.23325226  0.88783483    -0.58100
O981        O  0.92955348  0.18656546  0.77760710    -0.48200
O982        O  0.49878635  0.26092989  0.84495202    -0.54600
C983        C  0.51904152  0.17026345  0.79511041     0.85500
O984        O  0.91392023  0.12666089  0.85216027    -0.56500
O985        O  0.91638758  0.20684342  0.83694732    -0.59800
C986        C  0.62122378  0.98944340  0.60986542     0.03500
C987        C  0.64077739  0.02854679  0.62926713    -0.12700
C988        C  0.68157016  0.05836135  0.61856446     0.01000
C989        C  0.70538612  0.04594936  0.59201592    -0.11200
C990        C  0.68647236  0.00442914  0.57546084     0.03500
C991        C  0.64407922  0.47799285  0.58277310    -0.10600
H992        H  0.62255607  0.03691921  0.65027557     0.09100
H993        H  0.73745102  0.06786282  0.58435975     0.06600
H994        H  0.62849764  0.44801893  0.56665503     0.06400
C995        C  0.81402756  0.33552680  0.56674245     0.03500
C996        C  0.79743213  0.35956722  0.55072935    -0.12700
C997        C  0.75462044  0.34551145  0.55317219     0.01000
C998        C  0.72833216  0.30606963  0.57336535    -0.11200
C999        C  0.74564624  0.28088890  0.58758665     0.03500
C1000       C  0.78815715  0.29595875  0.58269749    -0.10600
H1001       H  0.81846958  0.39056426  0.53864014     0.09100
H1002       H  0.69555273  0.29536002  0.57788857     0.06600
H1003       H  0.80216266  0.27832241  0.59571952     0.06400
In1004     In  0.70985336  0.17664710  0.66644425     1.36900
C1005       C  0.78284024  0.19721206  0.70965228     0.77900
O1006       O  0.68106017  0.10708152  0.67044013    -0.60500
O1007       O  0.71652275  0.13463272  0.61391375    -0.51400
C1008       C  0.63910066  0.16767874  0.70496607     0.70600
O1009       O  0.67364669  0.18329268  0.72514181    -0.46300
C1010       C  0.72498039  0.24253076  0.61484123     0.75300
O1011       O  0.74784667  0.17277732  0.72620458    -0.58100
O1012       O  0.71135741  0.20646594  0.59942247    -0.48200
O1013       O  0.77991694  0.21063126  0.67237979    -0.54600
C1014       C  0.69487220  0.10137532  0.63492580     0.85500
O1015       O  0.64146878  0.15821485  0.66569749    -0.56500
O1016       O  0.72923481  0.24419718  0.65611118    -0.59800
C1017       C  0.91625224  0.03758019  0.94374913     0.03500
C1018       C  0.87492151  0.51100921  0.95584168    -0.12700
C1019       C  0.84450856  0.02302784  0.95066710     0.01000
C1020       C  0.85667254  0.06224945  0.93023795    -0.11200
C1021       C  0.89968264  0.08995394  0.92073656     0.03500
C1022       C  0.92878472  0.07762036  0.93022361    -0.10600
H1023       H  0.86600176  0.48000224  0.96709465     0.09100
H1024       H  0.83356431  0.07127395  0.92274332     0.06600
H1025       H  0.96107046  0.09731962  0.92072614     0.06400
In1026     In  0.72654935  0.43490193  0.50201290     1.36900
C1027       C  0.70690286  0.48581712  0.54869813     0.77900
O1028       O  0.79688728  0.47429978  0.50374679    -0.60500
O1029       O  0.76754833  0.48233824  0.94789937    -0.51400
C1030       C  0.74097455  0.37464825  0.53513085     0.70600
O1031       O  0.72059539  0.38794388  0.55612768    -0.46300
C1032       C  0.65570930  0.38226657  0.95716426     0.75300
O1033       O  0.72731678  0.46991118  0.56510137    -0.58100
O1034       O  0.68966842  0.40664939  0.93832594    -0.48200
O1035       O  0.69785016  0.47670519  0.00878165    -0.54600
C1036       C  0.80166305  0.49317607  0.96773949     0.85500
O1037       O  0.75331718  0.39193227  0.99812302    -0.56500
O1038       O  0.65849925  0.38374928  0.49847748    -0.59800
C1039       C  0.91716354  0.39040730  0.62516388    -0.22100
C1040       C  0.94391174  0.39092071  0.59274962     0.09900
C1041       C  0.92772003  0.37062556  0.55233821     0.10300
C1042       C  0.88492297  0.35291054  0.54395743    -0.17000
C1043       C  0.85862353  0.35442435  0.57578839    -0.27400
C1044       C  0.87452984  0.37198611  0.61737710     0.18600
C1045       C  0.98889612  0.41607169  0.60075238     0.12600
C1046       C  0.95548802  0.36795592  0.51821368    -0.11800
H1047       H  0.87197024  0.33799491  0.51273746     0.12800
C1048       C  0.84667258  0.37150816  0.65356410    -0.22600
H1049       H  0.92987967  0.40561712  0.65604269     0.08500
C1050       C  0.50824625  0.45961927  0.60128822     0.04800
C1051       C  0.55142906  0.48265945  0.60515952    -0.19900
C1052       C  0.57542451  0.46332511  0.61224793    -0.12100
C1053       C  0.55520179  0.41972554  0.61700859     0.13500
C1054       C  0.51233987  0.39650044  0.60880314    -0.22600
C1055       C  0.98355992  0.48188203  0.59691482    -0.05600
H1056       H  0.56652414  0.01602988  0.60157579     0.15100
C1057       C  0.57756219  0.39713742  0.63210965    -0.15800
H1058       H  0.99688661  0.36295496  0.60967997     0.09400
H1059       H  0.82970651  0.38762329  0.64242613     0.07200
H1060       H  0.86462361  0.38719618  0.68368896     0.08400
H1061       H  0.82391671  0.33902992  0.66250211     0.07500
H1062       H  0.97201980  0.35242668  0.53219818     0.02400
H1063       H  0.97866210  0.39943745  0.50695570     0.02900
H1064       H  0.93731140  0.34942045  0.48948897     0.06400
H1065       H  0.50400808  0.51606819  0.09682592     0.05300
H1066       H  0.96228079  0.47418410  0.62516636    -0.00400
H1067       H  0.96499099  0.47260619  0.56600677     0.01000
H1068       H  0.56150629  0.37752488  0.66102739     0.04700
H1069       H  0.61004572  0.41844149  0.64272061     0.06600
H1070       H  0.57760793  0.37706518  0.60529167     0.07500
C1071       C  0.55406283  0.47594459  0.90046287    -0.22100
C1072       C  0.01175694  0.45954751  0.90920940     0.09900
C1073       C  0.98513476  0.41635375  0.91120189     0.10300
C1074       C  0.00227252  0.39037337  0.90849626    -0.17000
C1075       C  0.54505407  0.40654598  0.90111316    -0.27400
C1076       C  0.57077465  0.44981315  0.89435406     0.18600
C1077       C  0.99506586  0.48750114  0.91638300     0.12600
C1078       C  0.93875604  0.39783096  0.91687003    -0.11800
H1079       H  0.98223275  0.35736500  0.91340082     0.12800
C1080       C  0.61527246  0.46938538  0.87905524    -0.22600
H1081       H  0.57378742  0.50917119  0.89700548     0.08500
C1082       C  0.99648978  0.50400121  0.95830354     0.04800
C1083       C  0.97023469  0.52021972  0.96715323    -0.19900
C1084       C  0.94417842  0.52129426  0.93412185    -0.12100
C1085       C  0.94710777  0.50976621  0.89061734     0.13500
C1086       C  0.97245946  0.49264033  0.88239269    -0.22600
C1087       C  0.52581266  0.50449250  0.99315579    -0.05600
H1088       H  0.96974138  0.03167312  0.99969790     0.15100
C1089       C  0.92322678  0.51508378  0.85300850    -0.15800
H1090       H  0.97359151  0.48177447  0.84983146     0.09400
H1091       H  0.63650965  0.48957777  0.90534806     0.07200
H1092       H  0.61944709  0.48863139  0.84942212     0.08400
H1093       H  0.62444933  0.44632933  0.86951832     0.07500
H1094       H  0.92556051  0.40669150  0.88873053     0.02400
H1095       H  0.93216311  0.40924375  0.94773758     0.02900
H1096       H  0.92250073  0.36347272  0.91796388     0.06400
H1097       H  0.52578618  0.02194596  0.02247595     0.05300
H1098       H  0.55809434  0.52027748  0.98037767    -0.00400
H1099       H  0.01702167  0.47241484  0.00290073     0.01000
H1100       H  0.92883349  0.50382923  0.82146298     0.04700
H1101       H  0.93322913  0.54837716  0.84856354     0.06600
H1102       H  0.88933423  0.49756486  0.85982504     0.07500
C1103       C  0.95383930  0.47673377  0.72301489    -0.22100
C1104       C  0.97086115  0.45628594  0.74688320     0.09900
C1105       C  0.00938529  0.47902103  0.76876832     0.10300
C1106       C  0.02919049  0.02213007  0.76809324    -0.17300
C1107       C  0.51193029  0.04257922  0.74470099    -0.27400
C1108       C  0.47407177  0.01989018  0.72146797     0.18600
C1109       C  0.94829582  0.41097959  0.74803803     0.12600
C1110       C  0.02955793  0.45795626  0.79283263    -0.11800
H1111       H  0.55843730  0.04006263  0.78557243     0.12800
C1112       C  0.45463582  0.04001923  0.69426091    -0.22600
H1113       H  0.92475887  0.45889611  0.70521761     0.08500
C1114       C  0.91076166  0.38864571  0.77146353     0.04800
C1115       C  0.89151312  0.34557509  0.77268923    -0.19900
C1116       C  0.90858287  0.32480809  0.75035828    -0.12100
C1117       C  0.94570810  0.34699109  0.72643351     0.13500
C1118       C  0.96525085  0.39009940  0.72555540    -0.22600
C1119       C  0.89094103  0.40985940  0.79516868    -0.05600
H1120       H  0.86285888  0.32786922  0.79087759     0.15100
C1121       C  0.96401258  0.32527395  0.70098626    -0.15800
H1122       H  0.49352880  0.40768026  0.70676261     0.09400
H1123       H  0.42321246  0.03073643  0.70717398     0.07200
H1124       H  0.45151596  0.02960177  0.65963281     0.08400
H1125       H  0.47312076  0.07428136  0.69418455     0.07500
H1126       H  0.03782762  0.44047219  0.76945999     0.02400
H1127       H  0.00791218  0.43632058  0.81781023     0.02900
H1128       H  0.05873810  0.48080741  0.80940243     0.06400
H1129       H  0.86194540  0.38732198  0.81220771     0.05300
H1130       H  0.88273356  0.42758879  0.77156688    -0.00400
H1131       H  0.91272936  0.43111834  0.82017268     0.01000
H1132       H  0.94118354  0.30440967  0.67613167     0.04700
H1133       H  0.99272860  0.34766023  0.68391856     0.06600
H1134       H  0.97270636  0.30712309  0.72339178     0.07500
C1135       C  0.53483666  0.58769990  0.24492555     0.03500
C1136       C  0.51928367  0.60917108  0.26772663    -0.12700
C1137       C  0.54121038  0.65239729  0.26995790     0.01000
C1138       C  0.58148352  0.67431271  0.24957803    -0.11200
C1139       C  0.59765196  0.65150594  0.22682487     0.03500
C1140       C  0.57317990  0.60852096  0.22448271    -0.10600
H1141       H  0.98922678  0.59163566  0.28346384     0.09100
H1142       H  0.59964192  0.70774290  0.25164730     0.06600
H1143       H  0.58461429  0.59054642  0.20748934     0.06400
C1144       C  0.56212006  0.87799966  0.40453659     0.03500
C1145       C  0.54096705  0.83862688  0.38569143    -0.12700
C1146       C  0.55373813  0.80920365  0.39288958     0.01000
C1147       C  0.59175832  0.82179515  0.41676627    -0.11200
C1148       C  0.61461868  0.86297788  0.43392084     0.03500
C1149       C  0.59771488  0.88903984  0.42978556    -0.10600
H1150       H  0.01317700  0.83042986  0.36638674     0.09100
H1151       H  0.60335149  0.80041352  0.42149792     0.06600
H1152       H  0.61309509  0.91895907  0.44600951     0.06400
C1153       C  0.88606510  0.77969938  0.25135735     0.03500
C1154       C  0.84673589  0.75825084  0.23242087    -0.12700
C1155       C  0.82399748  0.71503209  0.23309453     0.01000
C1156       C  0.84235384  0.69290089  0.25373202    -0.11200
C1157       C  0.88323385  0.71564865  0.27300493     0.03500
C1158       C  0.90370442  0.75871756  0.27191390    -0.10600
H1159       H  0.83371373  0.77574614  0.21694019     0.09100
H1160       H  0.82565522  0.65940333  0.25449765     0.06600
H1161       H  0.93409624  0.77647563  0.28746939     0.06400
In1162     In  0.96836629  0.69154045  0.33963662     1.36900
C1163       C  0.52516832  0.76664363  0.37461931     0.77900
O1164       O  0.49842628  0.65242431  0.32903935    -0.60500
O1165       O  0.51410795  0.70005013  0.28279275    -0.51400
C1166       C  0.91741627  0.62819071  0.39341999     0.70600
O1167       O  0.94586604  0.66281054  0.40748416    -0.46300
C1168       C  0.90766038  0.69927994  0.29664207     0.75300
O1169       O  0.02269889  0.73325247  0.38783597    -0.58100
O1170       O  0.92955255  0.68656539  0.27760794    -0.48200
O1171       O  0.49878674  0.76093014  0.34495105    -0.54600
C1172       C  0.51904119  0.67026347  0.29511124     0.85500
O1173       O  0.91391986  0.62666099  0.35216075    -0.56500
O1174       O  0.91638694  0.70684341  0.33694832    -0.59800
C1175       C  0.62122374  0.48944339  0.10986575     0.03500
C1176       C  0.64077739  0.52854688  0.12926729    -0.12700
C1177       C  0.68157012  0.55836144  0.11856432     0.01000
C1178       C  0.70538589  0.54594938  0.09201563    -0.11200
C1179       C  0.68647216  0.50442906  0.07546082     0.03500
C1180       C  0.64407879  0.97799267  0.08277352    -0.10600
H1181       H  0.62255623  0.53691929  0.15027577     0.09100
H1182       H  0.73745085  0.56786292  0.08435915     0.06600
H1183       H  0.62849717  0.94801880  0.06665561     0.06400
C1184       C  0.81402759  0.83552724  0.06674314     0.03500
C1185       C  0.79743210  0.85956757  0.05072990    -0.12700
C1186       C  0.75462038  0.84551160  0.05317260     0.01000
C1187       C  0.72833208  0.80606969  0.07336557    -0.11200
C1188       C  0.74564628  0.78088906  0.08758698     0.03500
C1189       C  0.78815726  0.79595919  0.08269814    -0.10600
H1190       H  0.81846943  0.89056449  0.03864076     0.09100
H1191       H  0.69555266  0.79535996  0.07788856     0.06600
H1192       H  0.80216289  0.77832292  0.09572039     0.06400
In1193     In  0.70985310  0.67664704  0.16644450     1.36900
C1194       C  0.78283968  0.69721175  0.20965301     0.77900
O1195       O  0.68106056  0.60708150  0.17044046    -0.60500
O1196       O  0.71652223  0.63463280  0.11391359    -0.51400
C1197       C  0.63910032  0.66767874  0.20496649     0.70600
O1198       O  0.67364645  0.68329293  0.22514201    -0.46300
C1199       C  0.72498044  0.74253086  0.11484149     0.75300
O1200       O  0.74784596  0.67277759  0.22620538    -0.58100
O1201       O  0.71135705  0.70646599  0.09942268    -0.48200
O1202       O  0.77991673  0.71063048  0.17238013    -0.54600
C1203       C  0.69487217  0.60137538  0.13492581     0.85500
O1204       O  0.64146835  0.65821452  0.16569801    -0.56500
O1205       O  0.72923522  0.74419722  0.15611139    -0.59800
C1206       C  0.91625225  0.53758031  0.44374943     0.03500
C1207       C  0.87492128  0.01100914  0.45584182    -0.12700
C1208       C  0.84450846  0.52302762  0.45066739     0.01000
C1209       C  0.85667224  0.56224924  0.43023831    -0.11200
C1210       C  0.89968231  0.58995390  0.42073698     0.03500
C1211       C  0.92878455  0.57762050  0.43022396    -0.10600
H1212       H  0.86600157  0.98000213  0.46709465     0.09100
H1213       H  0.83356394  0.57127355  0.42274375     0.06600
H1214       H  0.96107019  0.59731987  0.42072654     0.06400
In1215     In  0.72654945  0.93490207  0.00201310     1.36900
C1216       C  0.70690239  0.98581694  0.04869826     0.77900
O1217       O  0.79688742  0.97430090  0.00374719    -0.60500
O1218       O  0.76754808  0.98233908  0.44790012    -0.51400
C1219       C  0.74097451  0.87464836  0.03513118     0.70600
O1220       O  0.72059582  0.88794442  0.05612817    -0.46300
C1221       C  0.65570924  0.88226674  0.45716383     0.75300
O1222       O  0.72731759  0.96991229  0.06510120    -0.58100
O1223       O  0.68966866  0.90664907  0.43832577    -0.48200
O1224       O  0.69785143  0.97670633  0.50878150    -0.54600
C1225       C  0.80166285  0.99317596  0.46773969     0.85500
O1226       O  0.75331771  0.89193281  0.49812327    -0.56500
O1227       O  0.65849959  0.88374857  0.99847788    -0.59800
C1228       C  0.91716364  0.89040814  0.12516434    -0.22100
C1229       C  0.94391179  0.89092117  0.09275021     0.09900
C1230       C  0.92772005  0.87062602  0.05233885     0.10300
C1231       C  0.88492296  0.85291102  0.04395804    -0.17000
C1232       C  0.85862360  0.85442503  0.07578900    -0.27400
C1233       C  0.87452996  0.87198722  0.11737751     0.18600
C1234       C  0.98889621  0.91607198  0.10075296     0.12600
C1235       C  0.95548800  0.86795625  0.01821430    -0.11800
H1236       H  0.87197029  0.83799533  0.01273833     0.12800
C1237       C  0.84667280  0.87150992  0.15356429    -0.22600
H1238       H  0.92987984  0.90561807  0.15604313     0.08500
C1239       C  0.50824604  0.95961944  0.10128931     0.04800
C1240       C  0.55142887  0.98265951  0.10516040    -0.19900
C1241       C  0.57542423  0.96332509  0.11224878    -0.12100
C1242       C  0.55520143  0.91972555  0.11700976     0.13500
C1243       C  0.51233942  0.89650053  0.10880468    -0.22600
C1244       C  0.98356021  0.98188240  0.09691494    -0.05600
H1245       H  0.56652422  0.51603004  0.10157592     0.15100
C1246       C  0.57756186  0.89713749  0.13211087    -0.15800
H1247       H  0.99688640  0.86295513  0.10968100     0.09400
H1248       H  0.82970686  0.88762508  0.14242591     0.07200
H1249       H  0.86462386  0.88719829  0.18368900     0.08400
H1250       H  0.82391682  0.83903184  0.16250272     0.07500
H1251       H  0.97201976  0.85242701  0.03219885     0.02400
H1252       H  0.97866212  0.89943768  0.00695617     0.02900
H1253       H  0.93731135  0.84942075  0.98948961     0.06400
H1254       H  0.50400799  0.01606801  0.59682576     0.05300
H1255       H  0.96228105  0.97418460  0.12516650    -0.00400
H1256       H  0.96499120  0.97260644  0.06600690     0.01000
H1257       H  0.56150630  0.87752544  0.16102898     0.04700
H1258       H  0.61004560  0.91844165  0.14272133     0.06600
H1259       H  0.57760722  0.87706488  0.10529311     0.07500
C1260       C  0.55406338  0.97594539  0.40046205    -0.22100
C1261       C  0.01175728  0.95954852  0.40920855     0.09900
C1262       C  0.98513505  0.91635473  0.41120143     0.10300
C1263       C  0.00227274  0.89037430  0.40849585    -0.17000
C1264       C  0.54505445  0.90654671  0.40111211    -0.27400
C1265       C  0.57077507  0.94981388  0.39435296     0.18600
C1266       C  0.99506633  0.98750226  0.41638233     0.12600
C1267       C  0.93875636  0.89783206  0.41686985    -0.11800
H1268       H  0.98223284  0.85736583  0.41340057     0.12800
C1269       C  0.61527274  0.96938597  0.37905374    -0.22600
H1270       H  0.57378804  0.00917205  0.39700451     0.08500
C1271       C  0.99649006  0.00400189  0.45830308     0.04800
C1272       C  0.97023465  0.02021994  0.46715313    -0.19900
C1273       C  0.94417823  0.02129447  0.43412192    -0.12100
C1274       C  0.94710765  0.00976683  0.39061725     0.13500
C1275       C  0.97245970  0.99264142  0.38239222    -0.22600
C1276       C  0.52581285  0.00449292  0.49315541    -0.05600
H1277       H  0.96974145  0.53167308  0.49969806     0.15100
C1278       C  0.92322644  0.01508445  0.35300866    -0.15800
H1279       H  0.97359178  0.98177583  0.34983084     0.09400
H1280       H  0.63651016  0.98957832  0.40534645     0.07200
H1281       H  0.61944723  0.98863202  0.34942070     0.08400
H1282       H  0.62444943  0.94632984  0.36951661     0.07500
H1283       H  0.92556064  0.90669226  0.38873030     0.02400
H1284       H  0.93216359  0.90924504  0.44773729     0.02900
H1285       H  0.92250104  0.86347374  0.41796406     0.06400
H1286       H  0.52578635  0.52194589  0.52247538     0.05300
H1287       H  0.55809458  0.02027814  0.48037740    -0.00400
H1288       H  0.01702198  0.97241523  0.50289984     0.01000
H1289       H  0.92883323  0.00383030  0.32146298     0.04700
H1290       H  0.93322850  0.04837781  0.34856408     0.06600
H1291       H  0.88933386  0.99756530  0.35982522     0.07500
C1292       C  0.95383940  0.97673401  0.22301446    -0.22100
C1293       C  0.97086115  0.95628601  0.24688271     0.09900
C1294       C  0.00938527  0.97902094  0.26876786     0.10300
C1295       C  0.02919065  0.52213002  0.26809371    -0.17300
C1296       C  0.51193042  0.54257920  0.24470203    -0.27400
C1297       C  0.47407225  0.51989035  0.22146834     0.18600
C1298       C  0.94829551  0.91097961  0.24803778     0.12600
C1299       C  0.02955782  0.95795605  0.29283212    -0.11800
H1300       H  0.55843728  0.54006232  0.28557362     0.12800
C1301       C  0.45463663  0.54001961  0.19426117    -0.22600
H1302       H  0.92475905  0.95889655  0.20521718     0.08500
C1303       C  0.91076140  0.88864608  0.27146340     0.04800
C1304       C  0.89151255  0.84557540  0.27268951    -0.19900
C1305       C  0.90858210  0.82480804  0.25035883    -0.12100
C1306       C  0.94570734  0.84699071  0.22643404     0.13500
C1307       C  0.96525034  0.89009906  0.22555548    -0.22600
C1308       C  0.89094106  0.90986020  0.29516823    -0.05600
H1309       H  0.86285844  0.82786988  0.29087791     0.15100
C1310       C  0.96401172  0.82527322  0.20098730    -0.15800
H1311       H  0.49352855  0.90767955  0.20676315     0.09400
H1312       H  0.42321301  0.53073647  0.20717366     0.07200
H1313       H  0.45151743  0.52960257  0.15963292     0.08400
H1314       H  0.47312143  0.57428170  0.19418533     0.07500
H1315       H  0.03782747  0.94047197  0.26945939     0.02400
H1316       H  0.00791208  0.93632038  0.31780970     0.02900
H1317       H  0.05873803  0.98080710  0.30940185     0.06400
H1318       H  0.86194553  0.88732310  0.31220755     0.05300
H1319       H  0.88273360  0.92758938  0.27156613    -0.00400
H1320       H  0.91272963  0.93111944  0.32017194     0.01000
H1321       H  0.94118250  0.80440851  0.17613306     0.04700
H1322       H  0.99272763  0.84765922  0.18391927     0.06600
H1323       H  0.97270564  0.80712278  0.22339326     0.07500
C1324       C  0.53483577  0.58769943  0.74492305     0.03500
C1325       C  0.51928290  0.60917065  0.76772415    -0.12700
C1326       C  0.54120994  0.65239682  0.76995598     0.01000
C1327       C  0.58148328  0.67431211  0.74957656    -0.11200
C1328       C  0.59765160  0.65150539  0.72682325     0.03500
C1329       C  0.57317923  0.60852039  0.72448050    -0.10600
H1330       H  0.98922601  0.59163551  0.78346180     0.09100
H1331       H  0.59964198  0.70774240  0.75164630     0.06600
H1332       H  0.58461349  0.59054593  0.70748724     0.06400
C1333       C  0.56211981  0.87799858  0.90453773     0.03500
C1334       C  0.54096726  0.83862610  0.88569191    -0.12700
C1335       C  0.55373850  0.80920295  0.89288968     0.01000
C1336       C  0.59175867  0.82179444  0.91676652    -0.11200
C1337       C  0.61461848  0.86297692  0.93392191     0.03500
C1338       C  0.59771429  0.88903859  0.92978722    -0.10600
H1339       H  0.01317743  0.83042944  0.86638675     0.09100
H1340       H  0.60335215  0.80041308  0.92149766     0.06600
H1341       H  0.61309402  0.91895745  0.94601165     0.06400
C1342       C  0.88606592  0.77969953  0.75135548     0.03500
C1343       C  0.84673695  0.75825105  0.73241847    -0.12700
C1344       C  0.82399840  0.71503232  0.73309223     0.01000
C1345       C  0.84235455  0.69290103  0.75373006    -0.11200
C1346       C  0.88323453  0.71564870  0.77300312     0.03500
C1347       C  0.90370509  0.75871762  0.77191225    -0.10600
H1348       H  0.83371488  0.77574642  0.71693765     0.09100
H1349       H  0.82565574  0.65940350  0.75449590     0.06600
H1350       H  0.93409674  0.77647561  0.78746809     0.06400
In1351     In  0.96836668  0.69154022  0.83963569     1.36900
C1352       C  0.52516881  0.76664309  0.87461891     0.77900
O1353       O  0.49842591  0.65242358  0.82903758    -0.60500
O1354       O  0.51410823  0.70005008  0.78279165    -0.51400
C1355       C  0.91741693  0.62819059  0.89341949     0.70600
O1356       O  0.94586619  0.66281075  0.90748350    -0.46300
C1357       C  0.90766093  0.69927981  0.79664046     0.75300
O1358       O  0.02270019  0.73325217  0.88783432    -0.58100
O1359       O  0.92955351  0.68656565  0.77760653    -0.48200
O1360       O  0.49878642  0.76092970  0.84495164    -0.54600
C1361       C  0.51904099  0.67026301  0.79510964     0.85500
O1362       O  0.91392097  0.62666041  0.85216022    -0.56500
O1363       O  0.91638694  0.70684277  0.83694687    -0.59800
C1364       C  0.62122395  0.48944309  0.60986616     0.03500
C1365       C  0.64077772  0.52854657  0.62926761    -0.12700
C1366       C  0.68157024  0.55836121  0.61856425     0.01000
C1367       C  0.70538591  0.54594915  0.59201534    -0.11200
C1368       C  0.68647223  0.50442876  0.57546084     0.03500
C1369       C  0.64407922  0.97799333  0.58277245    -0.10600
H1370       H  0.62255653  0.53691912  0.65027639     0.09100
H1371       H  0.73745076  0.56786276  0.58435859     0.06600
H1372       H  0.62849771  0.94801960  0.56665411     0.06400
C1373       C  0.81402776  0.83552713  0.56674190     0.03500
C1374       C  0.79743224  0.85956745  0.55072869    -0.12700
C1375       C  0.75462055  0.84551171  0.55317184     0.01000
C1376       C  0.72833242  0.80607002  0.57336527    -0.11200
C1377       C  0.74564653  0.78088933  0.58758657     0.03500
C1378       C  0.78815745  0.79595923  0.58269727    -0.10600
H1379       H  0.81846959  0.89056434  0.53863927     0.09100
H1380       H  0.69555290  0.79536038  0.57788870     0.06600
H1381       H  0.80216308  0.77832295  0.59571942     0.06400
In1382     In  0.70985324  0.67664702  0.66644360     1.36900
C1383       C  0.78284033  0.69721200  0.70965120     0.77900
O1384       O  0.68106208  0.60708164  0.67044081    -0.60500
O1385       O  0.71652095  0.63463237  0.61391213    -0.51400
C1386       C  0.63910013  0.66767812  0.70496523     0.70600
O1387       O  0.67364621  0.68329268  0.72514092    -0.46300
C1388       C  0.72498070  0.74253113  0.61484107     0.75300
O1389       O  0.74784679  0.67277817  0.72620412    -0.58100
O1390       O  0.71135674  0.70646623  0.59942210    -0.48200
O1391       O  0.77991698  0.71063039  0.67237826    -0.54600
C1392       C  0.69487234  0.60137524  0.63492536     0.85500
O1393       O  0.64146840  0.65821382  0.66569687    -0.56500
O1394       O  0.72923592  0.74419739  0.65611093    -0.59800
C1395       C  0.91625272  0.53758050  0.94374993     0.03500
C1396       C  0.87492112  0.01100904  0.95584125    -0.12700
C1397       C  0.84450884  0.52302783  0.95066716     0.01000
C1398       C  0.85667281  0.56224941  0.93023794    -0.11200
C1399       C  0.89968296  0.58995407  0.92073692     0.03500
C1400       C  0.92878515  0.57762072  0.93022446    -0.10600
H1401       H  0.86600135  0.98000213  0.96709434     0.09100
H1402       H  0.83356453  0.57127374  0.92274298     0.06600
H1403       H  0.96107090  0.59732008  0.92072722     0.06400
In1404     In  0.72654936  0.93490222  0.50201278     1.36900
C1405       C  0.70690309  0.98581759  0.54869814     0.77900
O1406       O  0.79688732  0.97429943  0.50374635    -0.60500
O1407       O  0.76754811  0.98233781  0.94789944    -0.51400
C1408       C  0.74097465  0.87464853  0.53513055     0.70600
O1409       O  0.72059539  0.88794405  0.55612741    -0.46300
C1410       C  0.65570924  0.88226615  0.95716454     0.75300
O1411       O  0.72731698  0.96991162  0.56510134    -0.58100
O1412       O  0.68966831  0.90664923  0.93832629    -0.48200
O1413       O  0.69784974  0.97670455  0.00878198    -0.54600
C1414       C  0.80166286  0.99317615  0.96773968     0.85500
O1415       O  0.75331721  0.89193215  0.99812362    -0.56500
O1416       O  0.65849920  0.88374959  0.49847718    -0.59800
C1417       C  0.91716366  0.89040746  0.62516348    -0.22100
C1418       C  0.94391191  0.89092071  0.59274940     0.09900
C1419       C  0.92772027  0.87062569  0.55233792     0.10300
C1420       C  0.88492321  0.85291078  0.54395694    -0.17000
C1421       C  0.85862377  0.85442481  0.57578779    -0.27400
C1422       C  0.87453002  0.87198658  0.61737652     0.18600
C1423       C  0.98889630  0.91607174  0.60075217     0.12600
C1424       C  0.95548831  0.86795611  0.51821339    -0.11800
H1425       H  0.87197061  0.83799517  0.51273712     0.12800
C1426       C  0.84667273  0.87150877  0.65356338    -0.22600
H1427       H  0.92987977  0.90561720  0.65604248     0.08500
C1428       C  0.50824581  0.95961895  0.60128810     0.04800
C1429       C  0.55142866  0.98265930  0.60515891    -0.19900
C1430       C  0.57542434  0.96332521  0.61224720    -0.12100
C1431       C  0.55520188  0.91972567  0.61700804     0.13500
C1432       C  0.51233986  0.89650033  0.60880303    -0.22600
C1433       C  0.98355985  0.98188193  0.59691476    -0.05600
H1434       H  0.56652469  0.51603003  0.60157663     0.15100
C1435       C  0.57756268  0.89713789  0.63210900    -0.15800
H1436       H  0.99688701  0.86295512  0.60967991     0.09400
H1437       H  0.82970668  0.88762385  0.64242529     0.07200
H1438       H  0.86462374  0.88719688  0.68368826     0.08400
H1439       H  0.82391688  0.83903054  0.66250152     0.07500
H1440       H  0.97202016  0.85242694  0.53219791     0.02400
H1441       H  0.97866239  0.89943767  0.50695538     0.02900
H1442       H  0.93731176  0.84942067  0.48948869     0.06400
H1443       H  0.50400892  0.01606885  0.09682622     0.05300
H1444       H  0.96228114  0.97418408  0.62516666    -0.00400
H1445       H  0.96499049  0.97260592  0.56600698     0.01000
H1446       H  0.56150693  0.87752525  0.66102672     0.04700
H1447       H  0.61004614  0.91844218  0.64272002     0.06600
H1448       H  0.57760868  0.87706580  0.60529100     0.07500
C1449       C  0.55406254  0.97594403  0.90046355    -0.22100
C1450       C  0.01175657  0.95954716  0.90920930     0.09900
C1451       C  0.98513450  0.91635332  0.91120171     0.10300
C1452       C  0.00227248  0.89037316  0.90849621    -0.17000
C1453       C  0.54505406  0.90654551  0.90111327    -0.27400
C1454       C  0.57077455  0.94981275  0.89435466     0.18600
C1455       C  0.99506527  0.98750066  0.91638271     0.12600
C1456       C  0.93875573  0.89783035  0.91686959    -0.11800
H1457       H  0.98223265  0.85736456  0.91340065     0.12800
C1458       C  0.61527250  0.96938532  0.87905622    -0.22600
H1459       H  0.57378700  0.00917059  0.89700636     0.08500
C1460       C  0.99648950  0.00400125  0.95830305     0.04800
C1461       C  0.97023442  0.02021982  0.96715256    -0.19900
C1462       C  0.94417788  0.02129389  0.93412123    -0.12100
C1463       C  0.94710700  0.00976544  0.89061684     0.13500
C1464       C  0.97245852  0.99263934  0.88239244    -0.22600
C1465       C  0.52581234  0.00449263  0.99315566    -0.05600
H1466       H  0.96974143  0.53167263  0.99969866     0.15100
C1467       C  0.92322623  0.01508316  0.85300789    -0.15800
H1468       H  0.97359033  0.98177308  0.84983127     0.09400
H1469       H  0.63650941  0.98957756  0.90534925     0.07200
H1470       H  0.61944720  0.98863152  0.84942325     0.08400
H1471       H  0.62444962  0.94632944  0.86951920     0.07500
H1472       H  0.92556015  0.90669059  0.88872989     0.02400
H1473       H  0.93216260  0.90924319  0.94773696     0.02900
H1474       H  0.92250058  0.86347208  0.91796370     0.06400
H1475       H  0.52578645  0.52194551  0.02247639     0.05300
H1476       H  0.55809398  0.02027744  0.98037745    -0.00400
H1477       H  0.01702179  0.97241538  0.00290049     0.01000
H1478       H  0.92883291  0.00382849  0.82146241     0.04700
H1479       H  0.93322892  0.04837661  0.84856282     0.06600
H1480       H  0.88933367  0.99756457  0.85982432     0.07500
C1481       C  0.95383978  0.97673428  0.72301472    -0.22100
C1482       C  0.97086125  0.95628628  0.74688341     0.09900
C1483       C  0.00938535  0.97902126  0.76876866     0.10300
C1484       C  0.02919030  0.52212981  0.76809279    -0.17300
C1485       C  0.51192965  0.54257872  0.74470005    -0.27400
C1486       C  0.47407084  0.51988939  0.72146756     0.18600
C1487       C  0.94829575  0.91097985  0.74803807     0.12600
C1488       C  0.02955783  0.95795636  0.79283303    -0.11800
H1489       H  0.55843733  0.54006261  0.78557083     0.12800
C1490       C  0.45463430  0.54001806  0.69426089    -0.22600
H1491       H  0.92475960  0.95889676  0.70521710     0.08500
C1492       C  0.91076116  0.88864575  0.77146286     0.04800
C1493       C  0.89151256  0.84557509  0.77268824    -0.19900
C1494       C  0.90858263  0.82480820  0.75035762    -0.12100
C1495       C  0.94570814  0.84699140  0.72643339     0.13500
C1496       C  0.96525100  0.89009976  0.72555563    -0.22600
C1497       C  0.89094014  0.90985929  0.79516757    -0.05600
H1498       H  0.86285803  0.82786906  0.79087619     0.15100
C1499       C  0.96401291  0.82527444  0.70098639    -0.15800
H1500       H  0.49352944  0.90768096  0.70676345     0.09400
H1501       H  0.42321106  0.53073509  0.70717443     0.07200
H1502       H  0.45151401  0.52960036  0.65963280     0.08400
H1503       H  0.47311906  0.57428016  0.69418429     0.07500
H1504       H  0.03782764  0.94047236  0.76946033     0.02400
H1505       H  0.00791193  0.93632055  0.81781040     0.02900
H1506       H  0.05873791  0.98080735  0.80940299     0.06400
H1507       H  0.86194405  0.88732170  0.81220593     0.05300
H1508       H  0.88273329  0.92758903  0.77156570    -0.00400
H1509       H  0.91272795  0.93111785  0.82017216     0.01000
H1510       H  0.94118406  0.80441014  0.67613168     0.04700
H1511       H  0.99272903  0.84766080  0.68391889     0.06600
H1512       H  0.97270657  0.80712362  0.72339212     0.07500
loop_ 
_geom_bond_atom_site_label_1 
_geom_bond_atom_site_label_2 
_geom_bond_distance 
_geom_bond_site_symmetry_2 
_ccdc_geom_bond_type 
C1            C2   1.385       .  A
C1            C6   1.385       .  A
C1          C162   1.457       .  S
C2            C3   1.397       .  A
C2          H763   1.085   1_455  S
C3            C4   1.440       .  A
C3           C38   1.502       .  S
C4            C5   1.440       .  A
C4            H8   1.083       .  S
C5            C6   1.394       .  A
C5           C63   1.501       .  S
C6            H9   1.087       .  S
H7          C758   1.085       .  S
C10          C11   1.397       .  A
C10          C15   1.393       .  A
C10         C130   1.481       .  S
C11          C12   1.404       .  A
C11         H772   1.084       .  S
C12          C13   1.434       .  A
C12          C29   1.508       .  S
C13          C14   1.432       .  A
C13          H17   1.082       .  S
C14          C15   1.393       .  A
C14          C87   1.493       .  S
C15          H18   1.086       .  S
H16         C767   1.084       .  S
C19          C20   1.387       .  A
C19          C24   1.383       .  A
C19         C171   1.457       .  S
C20          C21   1.396       .  A
C20          H25   1.085       .  S
C21          C22   1.438       .  A
C21          C60   1.500       .  S
C22          C23   1.438       .  A
C22          H26   1.082       .  S
C23          C24   1.391       .  A
C23          C34   1.493       .  S
C24          H27   1.087       .  S
In28         O39   2.281       .  S
In28         O33   2.283       .  S
In28         O35   2.341       .  S
In28         O36   2.312       .  S
In28         O40   2.259       .  S
In28        O786   2.251       .  S
In28        O787   2.338       .  S
In28        O793   2.252       .  S
C29          O37   1.262   1_455  A
C29         O791   1.262       .  A
O30        In784   2.251       .  S
O30          C38   1.261   1_655  A
O31        In784   2.338   1_455  S
O31          C38   1.262       .  A
C32          C76   1.487       .  S
C32          O39   1.259       .  A
C32          O33   1.266       .  A
C34          O36   1.267       .  A
C34          O40   1.263       .  A
O35         C785   1.262       .  A
O37        In784   2.252       .  S
C41          C42   1.395   1_565  A
C41         C424   1.396       .  A
C41         C485   1.479       .  S
C42          C43   1.399       .  A
C42          H47   1.085       .  S
C43          C44   1.436       .  A
C43          C69   1.508       .  S
C44          C45   1.435       .  A
C44          H48   1.081       .  S
C45         C424   1.396   1_545  A
C45         C460   1.499   1_545  S
C46         C419   1.396       .  A
C46         C423   1.396       .  A
C46          H49   1.086       .  S
C50          C51   1.394       .  A
C50          C55   1.385       .  A
C50          C98   1.461       .  S
C51          C52   1.402       .  A
C51          H56   1.086       .  S
C52          C53   1.434       .  A
C52          C85   1.502       .  S
C53          C54   1.433       .  A
C53          H57   1.082       .  S
C54          C55   1.392       .  A
C54          C65   1.490       .  S
C55          H58   1.088       .  S
In59         O61   2.259       .  S
In59         O62   2.340       .  S
In59         O70   2.268       .  S
In59         O64   2.328       .  S
In59         O66   2.334       .  S
In59         O67   2.301       .  S
In59         O68   2.256       .  S
In59         O71   2.264       .  S
C60          O66   1.262       .  A
C60          O68   1.261       .  A
O61          C69   1.262       .  A
O62          C69   1.263       .  A
C63          O70   1.264       .  A
C63          O64   1.265       .  A
C65          O67   1.267       .  A
C65          O71   1.262       .  A
C72          C77   1.382       .  A
C72         C451   1.399       .  A
C72         C517   1.465       .  S
C73         C450   1.399       .  A
C73         C452   1.408       .  A
C73          H78   1.083       .  S
C74          C75   1.434       .  A
C74         C451   1.408       .  A
C74         C469   1.509   1_545  S
C75          C76   1.433       .  A
C75          H79   1.083       .  S
C76          C77   1.390       .  A
C77          H80   1.087       .  S
In81         O83   2.266       .  S
In81         O86   2.321       .  S
In81         O88   2.318       .  S
In81         O93   2.284   1_554  S
In81        O273   2.340   1_554  S
In81        O281   2.261   1_554  S
In81        O278   2.297   1_554  S
In81        O279   2.285       .  S
C82         C423   1.499       .  S
C82          O88   1.264       .  A
C82         O279   1.260       .  A
O83         C280   1.262   1_554  A
O84        In270   2.340       .  S
O84          C91   1.266       .  A
C85          O86   1.266       .  A
C85         O281   1.264   1_554  A
C87          O89   1.267       .  A
C87         O282   1.259       .  A
O89        In270   2.297       .  S
O90        In270   2.285       .  S
O90         C271   1.260       .  A
C91         C452   1.509       .  S
C91         O272   1.262       .  A
O92        In270   2.261       .  S
O92         C274   1.264       .  A
O93         C276   1.259       .  A
C94          C95   1.396       .  A
C94          C99   1.391       .  A
C94         H104   1.076       .  S
C95          C96   1.411       .  A
C95         C100   1.468       .  S
C96          C97   1.402       .  A
C96         C101   1.504       .  S
C97          C98   1.399       .  A
C97         H102   1.084       .  S
C98          C99   1.411       .  A
C99         C103   1.508       .  S
C100        C861   1.409       .  A
C100        C865   1.399       .  A
C101        H117   1.108       .  S
C101        H118   1.108       .  S
C101        H119   1.108   1_554  S
C103        H114   1.110       .  S
C103        H115   1.110       .  S
C103        H116   1.110       .  S
C105        C106   1.393       .  A
C105        C856   1.409   1_455  A
C105        C866   1.510   1_455  S
C106        C107   1.405       .  A
C106        H489   1.084       .  S
C107        C108   1.416       .  A
C107        C419   1.479       .  S
C108        C109   1.400       .  A
C108        C112   1.508       .  S
C109        C856   1.399   1_455  A
C109        H869   1.084   1_455  S
C110        C861   1.510       .  S
C110        H121   1.107       .  S
C110        H122   1.110       .  S
C110       H1065   1.111       .  S
H111        C484   1.084   1_545  S
C112        H123   1.109       .  S
C112        H124   1.108       .  S
C112        H125   1.110       .  S
H113        C865   1.084       .  S
H120       C1055   1.111   1_455  S
C126        C131   1.399       .  A
C126        C883   1.396       .  A
C126        H136   1.084       .  S
C127        C128   1.408       .  A
C127        C882   1.396       .  A
C127        C132   1.466       .  S
C128        C129   1.396       .  A
C128        C133   1.509       .  S
C129        C886   1.406       .  A
C129        H134   1.084       .  S
C130        C131   1.420       .  A
C130        C885   1.406       .  A
C131        C135   1.509       .  S
C132        C137   1.408       .  A
C132        C141   1.394       .  A
C133        H149   1.107       .  S
C133        H150   1.110       .  S
C133        H151   1.110       .  S
C135        H146   1.110       .  S
C135        H147   1.110       .  S
C135        H148   1.108       .  S
C137        C138   1.402       .  A
C137        C898   1.503       .  S
C138        C139   1.399       .  A
C138        H521   1.084       .  S
C139        C140   1.415       .  A
C139        C450   1.465       .  S
C140        C141   1.394       .  A
C140        C144   1.509       .  S
C141        H145   1.081       .  S
C142        C893   1.503   1_455  S
C142        H153   1.110       .  S
C142        H530   1.107       .  S
C142        H910   1.108       .  S
H143        C516   1.084       .  S
C144        H155   1.111       .  S
C144        H156   1.110       .  S
C144        H157   1.110       .  S
H152        C520   1.107       .  S
H154        C898   1.108       .  S
C158        C159   1.399       .  A
C158       C1297   1.395       .  A
C158        H168   1.085       .  S
C159        C160   1.408       .  A
C159        C164   1.463       .  S
C160        C539   1.393       .  A
C160        C165   1.505       .  S
C161        C538   1.393   1_545  A
C161        C918   1.399       .  A
C161        H922   1.084       .  S
C162        C163   1.411   1_455  A
C162        C917   1.399       .  A
C163       C1292   1.395   1_545  A
C163        C167   1.508       .  S
C164        C169   1.411       .  A
C164        C173   1.400       .  A
C165        H181   1.108       .  S
C165        H182   1.109       .  S
C165        H183   1.108       .  S
H166        C917   1.084       .  S
C167        H178   1.110       .  S
C167        H179   1.110       .  S
C167        H180   1.107       .  S
C169        C170   1.393       .  A
C169        C174   1.506       .  S
C170        C171   1.397       .  A
C170        H175   1.085       .  S
C171        C172   1.408       .  A
C172        C173   1.394       .  A
C172        C176   1.506       .  S
C173        H933   1.084       .  S
C174        H184   1.111       .  S
C174        H185   1.109       .  S
C174        H186   1.104       .  S
C176        H187   1.111       .  S
C176        H188   1.104       .  S
C176        H189   1.108       .  S
H177        C929   1.084       .  S
C190        C191   1.385       .  A
C190        C195   1.385       .  A
C190        C351   1.457       .  S
C191        C192   1.397       .  A
C191        H952   1.085   1_455  S
C192        C193   1.440       .  A
C192        C227   1.502       .  S
C193        C194   1.440       .  A
C193        H197   1.083       .  S
C194        C195   1.394       .  A
C194        C252   1.501       .  S
C195        H198   1.087       .  S
H196        C947   1.085       .  S
C199        C200   1.397       .  A
C199        C204   1.393       .  A
C199        C319   1.481       .  S
C200        C201   1.404       .  A
C200        H961   1.084       .  S
C201        C202   1.434       .  A
C201        C218   1.508       .  S
C202        C203   1.432       .  A
C202        H206   1.082       .  S
C203        C204   1.393       .  A
C203        C276   1.493       .  S
C204        H207   1.086       .  S
H205        C956   1.084       .  S
C208        C209   1.387       .  A
C208        C213   1.383       .  A
C208        C360   1.457       .  S
C209        C210   1.396       .  A
C209        H214   1.085       .  S
C210        C211   1.438       .  A
C210        C249   1.500       .  S
C211        C212   1.438       .  A
C211        H215   1.082       .  S
C212        C213   1.391       .  A
C212        C223   1.493       .  S
C213        H216   1.087       .  S
In217       O975   2.251       .  S
In217       O976   2.338       .  S
In217       O228   2.281       .  S
In217       O222   2.283       .  S
In217       O224   2.341       .  S
In217       O225   2.312       .  S
In217       O982   2.252       .  S
In217       O229   2.259       .  S
C218        O980   1.262       .  A
C218        O226   1.262   1_455  A
O219       In973   2.251       .  S
O219        C227   1.261   1_655  A
O220       In973   2.338   1_455  S
O220        C227   1.262       .  A
C221        C265   1.487       .  S
C221        O228   1.259       .  A
C221        O222   1.266       .  A
C223        O225   1.267       .  A
C223        O229   1.263       .  A
O224        C974   1.262       .  A
O226       In973   2.252       .  S
C230        C231   1.395   1_565  A
C230        C613   1.396       .  A
C230        C674   1.479       .  S
C231        C232   1.399       .  A
C231        H236   1.085       .  S
C232        C233   1.436       .  A
C232        C258   1.508       .  S
C233        C234   1.435       .  A
C233        H237   1.081       .  S
C234        C613   1.396   1_545  A
C234        C649   1.499   1_545  S
C235        C608   1.396       .  A
C235        C612   1.396       .  A
C235        H238   1.086       .  S
C239        C240   1.394       .  A
C239        C244   1.385       .  A
C239        C287   1.461       .  S
C240        C241   1.402       .  A
C240        H245   1.086       .  S
C241        C242   1.434       .  A
C241        C274   1.502       .  S
C242        C243   1.433       .  A
C242        H246   1.082       .  S
C243        C244   1.392       .  A
C243        C254   1.490       .  S
C244        H247   1.088       .  S
In248       O250   2.259       .  S
In248       O251   2.340       .  S
In248       O259   2.268       .  S
In248       O253   2.328       .  S
In248       O255   2.334       .  S
In248       O256   2.301       .  S
In248       O257   2.256       .  S
In248       O260   2.264       .  S
C249        O255   1.262       .  A
C249        O257   1.261       .  A
O250        C258   1.262       .  A
O251        C258   1.263       .  A
C252        O259   1.264       .  A
C252        O253   1.265       .  A
C254        O256   1.267       .  A
C254        O260   1.262       .  A
C261        C640   1.399       .  A
C261        C266   1.382       .  A
C261        C706   1.465       .  S
C262        C639   1.399       .  A
C262        C641   1.408       .  A
C262        H267   1.083       .  S
C263        C640   1.408       .  A
C263        C264   1.434       .  A
C263        C658   1.509   1_545  S
C264        C265   1.433       .  A
C264        H268   1.083       .  S
C265        C266   1.390       .  A
C266        H269   1.087       .  S
In270       O272   2.266       .  S
In270       O275   2.321       .  S
In270       O277   2.318       .  S
In270       O282   2.284       .  S
C271        C612   1.499       .  S
C271        O277   1.264       .  A
O273        C280   1.266       .  A
C274        O275   1.266       .  A
C276        O278   1.267       .  A
C280        C641   1.509       .  S
C283        C284   1.396       .  A
C283        C288   1.391       .  A
C283        H293   1.076       .  S
C284        C285   1.411       .  A
C284        C289   1.468       .  S
C285        C286   1.402       .  A
C285        C290   1.504       .  S
C286        C287   1.399       .  A
C286        H291   1.084       .  S
C287        C288   1.411       .  A
C288        C292   1.508       .  S
C289       C1050   1.409       .  A
C289       C1054   1.399       .  A
C290        H306   1.108       .  S
C290        H307   1.108       .  S
C290        H308   1.108       .  S
C292        H303   1.110       .  S
C292        H304   1.110       .  S
C292        H305   1.110       .  S
C294       C1045   1.409   1_455  A
C294        C295   1.393       .  A
C294       C1055   1.510   1_455  S
C295        C296   1.405       .  A
C295        H678   1.084       .  S
C296        C297   1.416       .  A
C296        C608   1.479       .  S
C297        C298   1.400       .  A
C297        C301   1.508       .  S
C298       C1045   1.399   1_455  A
C298       H1058   1.084   1_455  S
C299       C1050   1.510       .  S
C299        H876   1.111       .  S
C299        H310   1.107       .  S
C299        H311   1.110       .  S
H300        C673   1.084   1_545  S
C301        H312   1.109       .  S
C301        H313   1.108       .  S
C301        H314   1.110       .  S
H302       C1054   1.084       .  S
H309        C866   1.111   1_455  S
C315       C1072   1.396       .  A
C315        C320   1.399       .  A
C315        H325   1.084       .  S
C316       C1071   1.396       .  A
C316        C317   1.408       .  A
C316        C321   1.466       .  S
C317        C318   1.396       .  A
C317        C322   1.509       .  S
C318       C1075   1.406       .  A
C318        H323   1.084       .  S
C319       C1074   1.406       .  A
C319        C320   1.420       .  A
C320        C324   1.509       .  S
C321        C326   1.408       .  A
C321        C330   1.394       .  A
C322        H338   1.107       .  S
C322        H339   1.110       .  S
C322        H340   1.110       .  S
C324        H335   1.110       .  S
C324        H336   1.110       .  S
C324        H337   1.108       .  S
C326        C327   1.402       .  A
C326       C1087   1.503       .  S
C327        C328   1.399       .  A
C327        H710   1.084       .  S
C328        C329   1.415       .  A
C328        C639   1.465       .  S
C329        C330   1.394       .  A
C329        C333   1.509       .  S
C330        H334   1.081       .  S
C331       C1082   1.503   1_455  S
C331        H719   1.107   1_556  S
C331        H342   1.110       .  S
C331       H1099   1.108   1_556  S
H332        C705   1.084       .  S
C333        H344   1.111       .  S
C333        H345   1.110       .  S
C333        H346   1.110       .  S
H341        C709   1.107   1_554  S
H343       C1087   1.108   1_554  S
C347        C348   1.399       .  A
C347       C1486   1.395       .  A
C347        H357   1.085       .  S
C348        C349   1.408       .  A
C348        C353   1.463       .  S
C349        C728   1.393       .  A
C349        C354   1.505       .  S
C350        C727   1.393   1_545  A
C350       C1107   1.399       .  A
C350       H1111   1.084       .  S
C351       C1106   1.399       .  A
C351        C352   1.411   1_455  A
C352       C1481   1.395   1_545  A
C352        C356   1.508       .  S
C353        C358   1.411       .  A
C353        C362   1.400       .  A
C354        H370   1.108       .  S
C354        H371   1.109       .  S
C354        H372   1.108       .  S
H355       C1106   1.084       .  S
C356        H367   1.110       .  S
C356        H368   1.110       .  S
C356        H369   1.107       .  S
C358        C359   1.393       .  A
C358        C363   1.506       .  S
C359        C360   1.397       .  A
C359        H364   1.085       .  S
C360        C361   1.408       .  A
C361        C362   1.394       .  A
C361        C365   1.506       .  S
C362       H1122   1.084       .  S
C363        H373   1.111       .  S
C363        H374   1.109       .  S
C363        H375   1.104       .  S
C365        H376   1.111       .  S
C365        H377   1.104       .  S
C365        H378   1.108       .  S
H366       C1118   1.084       .  S
C379        C380   1.385       .  A
C379        C384   1.385       .  A
C379        C540   1.457       .  S
C380        C381   1.397       .  A
C380       H1141   1.085   1_455  S
C381        C382   1.440       .  A
C381        C416   1.502       .  S
C382        C383   1.440       .  A
C382        H386   1.083       .  S
C383        C384   1.394       .  A
C383        C441   1.501       .  S
C384        H387   1.087       .  S
H385       C1136   1.085       .  S
C388        C389   1.397       .  A
C388        C393   1.393       .  A
C388        C508   1.481       .  S
C389        C390   1.404       .  A
C389       H1150   1.084       .  S
C390        C391   1.434       .  A
C390        C407   1.508       .  S
C391        C392   1.432       .  A
C391        H395   1.082       .  S
C392        C393   1.393       .  A
C392        C465   1.493       .  S
C393        H396   1.086       .  S
H394       C1145   1.084       .  S
C397        C398   1.387       .  A
C397        C402   1.383       .  A
C397        C549   1.457       .  S
C398        C399   1.396       .  A
C398        H403   1.085       .  S
C399        C400   1.438       .  A
C399        C438   1.500       .  S
C400        C401   1.438       .  A
C400        H404   1.082       .  S
C401        C402   1.391       .  A
C401        C412   1.493       .  S
C402        H405   1.087       .  S
In406      O1164   2.251       .  S
In406      O1165   2.338       .  S
In406       O417   2.281       .  S
In406       O411   2.283       .  S
In406       O413   2.341       .  S
In406       O414   2.312       .  S
In406      O1171   2.252       .  S
In406       O418   2.259       .  S
C407       O1169   1.262       .  A
C407        O415   1.262   1_455  A
O408      In1162   2.251       .  S
O408        C416   1.261   1_655  A
O409      In1162   2.338   1_455  S
O409        C416   1.262       .  A
C410        C454   1.487       .  S
C410        O417   1.259       .  A
C410        O411   1.266       .  A
C412        O414   1.267       .  A
C412        O418   1.263       .  A
O413       C1163   1.262       .  A
O415      In1162   2.252       .  S
C419        C420   1.395       .  A
C420        C421   1.399       .  A
C420        H425   1.085       .  S
C421        C422   1.436       .  A
C421        C447   1.508       .  S
C422        C423   1.435       .  A
C422        H426   1.081       .  S
C424        H427   1.086       .  S
C428        C429   1.394       .  A
C428        C433   1.385       .  A
C428        C476   1.461       .  S
C429        C430   1.402       .  A
C429        H434   1.086       .  S
C430        C431   1.434       .  A
C430        C463   1.502       .  S
C431        C432   1.433       .  A
C431        H435   1.082       .  S
C432        C433   1.392       .  A
C432        C443   1.490       .  S
C433        H436   1.088       .  S
In437       O439   2.259       .  S
In437       O440   2.340       .  S
In437       O448   2.268       .  S
In437       O442   2.328       .  S
In437       O444   2.334       .  S
In437       O445   2.301       .  S
In437       O446   2.256       .  S
In437       O449   2.264       .  S
C438        O444   1.262       .  A
C438        O446   1.261       .  A
O439        C447   1.262       .  A
O440        C447   1.263       .  A
C441        O448   1.264       .  A
C441        O442   1.265       .  A
C443        O445   1.267       .  A
C443        O449   1.262       .  A
C450        C455   1.382       .  A
C451        H456   1.083   1_545  S
C452        C453   1.434       .  A
C453        C454   1.433       .  A
C453        H457   1.083       .  S
C454        C455   1.390       .  A
C455        H458   1.087       .  S
In459       O461   2.266       .  S
In459       O651   2.340   1_554  S
In459       O659   2.261   1_554  S
In459       O464   2.321       .  S
In459       O466   2.318       .  S
In459       O656   2.297   1_554  S
In459       O657   2.285       .  S
In459       O471   2.284   1_554  S
C460        O466   1.264       .  A
C460        O657   1.260       .  A
O461        C658   1.262   1_554  A
O462       In648   2.340       .  S
O462        C469   1.266       .  A
C463        O659   1.264   1_554  A
C463        O464   1.266       .  A
C465        O467   1.267       .  A
C465        O660   1.259       .  A
O467       In648   2.297       .  S
O468       In648   2.285       .  S
O468        C649   1.260       .  A
C469        O650   1.262       .  A
O470       In648   2.261       .  S
O470        C652   1.264       .  A
O471        C654   1.259       .  A
C472        C473   1.396       .  A
C472        C477   1.391       .  A
C472        H482   1.076       .  S
C473        C474   1.411       .  A
C473        C478   1.468       .  S
C474        C475   1.402       .  A
C474        C479   1.504       .  S
C475        C476   1.399       .  A
C475        H480   1.084       .  S
C476        C477   1.411       .  A
C477        C481   1.508       .  S
C478       C1239   1.409       .  A
C478       C1243   1.399       .  A
C479        H495   1.108       .  S
C479        H496   1.108       .  S
C479        H497   1.108   1_554  S
C481        H492   1.110       .  S
C481        H493   1.110       .  S
C481        H494   1.110       .  S
C483       C1234   1.409   1_455  A
C483        C484   1.393       .  A
C483       C1244   1.510   1_455  S
C484        C485   1.405       .  A
C485        C486   1.416       .  A
C486        C487   1.400       .  A
C486        C490   1.508       .  S
C487       C1234   1.399   1_455  A
C487       H1247   1.084   1_455  S
C488       C1239   1.510       .  S
C488       H1443   1.111   1_565  S
C488        H499   1.107       .  S
C488        H500   1.110       .  S
C490        H501   1.109       .  S
C490        H502   1.108       .  S
C490        H503   1.110       .  S
H491       C1243   1.084       .  S
H498       C1433   1.111   1_445  S
C504       C1261   1.396       .  A
C504        C509   1.399       .  A
C504        H514   1.084   1_565  S
C505       C1260   1.396       .  A
C505        C506   1.408       .  A
C505        C510   1.466       .  S
C506        C507   1.396       .  A
C506        C511   1.509       .  S
C507       C1264   1.406       .  A
C507        H512   1.084       .  S
C508       C1263   1.406       .  A
C508        C509   1.420       .  A
C509        C513   1.509       .  S
C510        C515   1.408   1_565  A
C510        C519   1.394       .  A
C511        H527   1.107       .  S
C511        H528   1.110       .  S
C511        H529   1.110       .  S
C513        H524   1.110       .  S
C513        H525   1.110       .  S
C513        H526   1.108       .  S
C515        C516   1.402       .  A
C515       C1276   1.503       .  S
C516        C517   1.399       .  A
C517        C518   1.415       .  A
C518        C519   1.394   1_545  A
C518        C522   1.509       .  S
C519        H523   1.081       .  S
C520       C1271   1.503   1_455  S
C520        H531   1.110       .  S
C520       H1288   1.108   1_545  S
C522        H533   1.111       .  S
C522        H534   1.110       .  S
C522        H535   1.110   1_545  S
H532       C1276   1.108   1_565  S
C536        C537   1.399       .  A
C536        C919   1.395   1_565  A
C536        H546   1.085       .  S
C537        C538   1.408       .  A
C537        C542   1.463       .  S
C538        C543   1.505       .  S
C539       C1296   1.399       .  A
C539       H1300   1.084       .  S
C540       C1295   1.399       .  A
C540        C541   1.411   1_455  A
C541        C914   1.395       .  A
C541        C545   1.508       .  S
C542        C547   1.411       .  A
C542        C551   1.400       .  A
C543        H559   1.108       .  S
C543        H560   1.109       .  S
C543        H561   1.108       .  S
H544       C1295   1.084       .  S
C545        H556   1.110       .  S
C545        H557   1.110       .  S
C545        H558   1.107       .  S
C547        C548   1.393       .  A
C547        C552   1.506       .  S
C548        C549   1.397       .  A
C548        H553   1.085       .  S
C549        C550   1.408       .  A
C550        C551   1.394       .  A
C550        C554   1.506       .  S
C551       H1311   1.084       .  S
C552        H562   1.111       .  S
C552        H563   1.109       .  S
C552        H564   1.104       .  S
C554        H565   1.111       .  S
C554        H566   1.104       .  S
C554        H567   1.108       .  S
H555       C1307   1.084       .  S
C568        C569   1.385       .  A
C568        C573   1.385       .  A
C568        C729   1.457       .  S
C569        C570   1.397       .  A
C569       H1330   1.085   1_455  S
C570        C571   1.440       .  A
C570        C605   1.502       .  S
C571        C572   1.440       .  A
C571        H575   1.083       .  S
C572        C573   1.394       .  A
C572        C630   1.501       .  S
C573        H576   1.087       .  S
H574       C1325   1.085       .  S
C577        C578   1.397       .  A
C577        C582   1.393       .  A
C577        C697   1.481       .  S
C578        C579   1.404       .  A
C578       H1339   1.084       .  S
C579        C580   1.434       .  A
C579        C596   1.508       .  S
C580        C581   1.432       .  A
C580        H584   1.082       .  S
C581        C582   1.393       .  A
C581        C654   1.493       .  S
C582        H585   1.086       .  S
H583       C1334   1.084       .  S
C586        C587   1.387       .  A
C586        C591   1.383       .  A
C586        C738   1.457       .  S
C587        C588   1.396       .  A
C587        H592   1.085       .  S
C588        C589   1.438       .  A
C588        C627   1.500       .  S
C589        C590   1.438       .  A
C589        H593   1.082       .  S
C590        C591   1.391       .  A
C590        C601   1.493       .  S
C591        H594   1.087       .  S
In595      O1353   2.251       .  S
In595      O1354   2.338       .  S
In595       O606   2.281       .  S
In595       O600   2.283       .  S
In595       O602   2.341       .  S
In595       O603   2.312       .  S
In595      O1360   2.252       .  S
In595       O607   2.259       .  S
C596       O1358   1.262       .  A
C596        O604   1.262   1_455  A
O597      In1351   2.251       .  S
O597        C605   1.261   1_655  A
O598      In1351   2.338   1_455  S
O598        C605   1.262       .  A
C599        C643   1.487       .  S
C599        O606   1.259       .  A
C599        O600   1.266       .  A
C601        O603   1.267       .  A
C601        O607   1.263       .  A
O602       C1352   1.262       .  A
O604      In1351   2.252       .  S
C608        C609   1.395       .  A
C609        C610   1.399       .  A
C609        H614   1.085       .  S
C610        C611   1.436       .  A
C610        C636   1.508       .  S
C611        C612   1.435       .  A
C611        H615   1.081       .  S
C613        H616   1.086       .  S
C617        C618   1.394       .  A
C617        C622   1.385       .  A
C617        C665   1.461       .  S
C618        C619   1.402       .  A
C618        H623   1.086       .  S
C619        C620   1.434       .  A
C619        C652   1.502       .  S
C620        C621   1.433       .  A
C620        H624   1.082       .  S
C621        C622   1.392       .  A
C621        C632   1.490       .  S
C622        H625   1.088       .  S
In626       O628   2.259       .  S
In626       O629   2.340       .  S
In626       O637   2.268       .  S
In626       O631   2.328       .  S
In626       O633   2.334       .  S
In626       O634   2.301       .  S
In626       O635   2.256       .  S
In626       O638   2.264       .  S
C627        O633   1.262       .  A
C627        O635   1.261       .  A
O628        C636   1.262       .  A
O629        C636   1.263       .  A
C630        O637   1.264       .  A
C630        O631   1.265       .  A
C632        O634   1.267       .  A
C632        O638   1.262       .  A
C639        C644   1.382       .  A
C640        H645   1.083   1_545  S
C641        C642   1.434       .  A
C642        C643   1.433       .  A
C642        H646   1.083       .  S
C643        C644   1.390       .  A
C644        H647   1.087       .  S
In648       O650   2.266       .  S
In648       O653   2.321       .  S
In648       O655   2.318       .  S
In648       O660   2.284       .  S
C649        O655   1.264       .  A
O651        C658   1.266       .  A
C652        O653   1.266       .  A
C654        O656   1.267       .  A
C661        C662   1.396       .  A
C661        C666   1.391       .  A
C661        H671   1.076       .  S
C662        C663   1.411       .  A
C662        C667   1.468       .  S
C663        C664   1.402       .  A
C663        C668   1.504       .  S
C664        C665   1.399       .  A
C664        H669   1.084       .  S
C665        C666   1.411       .  A
C666        C670   1.508       .  S
C667       C1428   1.409       .  A
C667       C1432   1.399       .  A
C668        H684   1.108       .  S
C668        H685   1.108       .  S
C668        H686   1.108       .  S
C670        H681   1.110       .  S
C670        H682   1.110       .  S
C670        H683   1.110       .  S
C672       C1423   1.409   1_455  A
C672        C673   1.393       .  A
C672       C1433   1.510   1_455  S
C673        C674   1.405       .  A
C674        C675   1.416       .  A
C675        C676   1.400       .  A
C675        C679   1.508       .  S
C676       C1423   1.399   1_455  A
C676       H1436   1.084   1_455  S
C677       C1428   1.510       .  S
C677       H1254   1.111   1_565  S
C677        H688   1.107       .  S
C677        H689   1.110       .  S
C679        H690   1.109       .  S
C679        H691   1.108       .  S
C679        H692   1.110       .  S
H680       C1432   1.084       .  S
H687       C1244   1.111   1_445  S
C693       C1450   1.396       .  A
C693        C698   1.399       .  A
C693        H703   1.084   1_565  S
C694       C1449   1.396       .  A
C694        C695   1.408       .  A
C694        C699   1.466       .  S
C695        C696   1.396       .  A
C695        C700   1.509       .  S
C696       C1453   1.406       .  A
C696        H701   1.084       .  S
C697       C1452   1.406       .  A
C697        C698   1.420       .  A
C698        C702   1.509       .  S
C699        C704   1.408   1_565  A
C699        C708   1.394       .  A
C700        H716   1.107       .  S
C700        H717   1.110       .  S
C700        H718   1.110       .  S
C702        H713   1.110       .  S
C702        H714   1.110       .  S
C702        H715   1.108       .  S
C704        C705   1.402       .  A
C704       C1465   1.503       .  S
C705        C706   1.399       .  A
C706        C707   1.415       .  A
C707        C708   1.394   1_545  A
C707        C711   1.509       .  S
C708        H712   1.081       .  S
C709       C1460   1.503   1_455  S
C709        H720   1.110       .  S
C709       H1477   1.108   1_546  S
C711        H722   1.111       .  S
C711        H723   1.110       .  S
C711        H724   1.110   1_545  S
H721       C1465   1.108   1_564  S
C725        C726   1.399       .  A
C725       C1108   1.395   1_565  A
C725        H735   1.085       .  S
C726        C727   1.408       .  A
C726        C731   1.463       .  S
C727        C732   1.505       .  S
C728       C1485   1.399       .  A
C728       H1489   1.084       .  S
C729       C1484   1.399       .  A
C729        C730   1.411   1_455  A
C730       C1103   1.395       .  A
C730        C734   1.508       .  S
C731        C736   1.411       .  A
C731        C740   1.400       .  A
C732        H748   1.108       .  S
C732        H749   1.109       .  S
C732        H750   1.108       .  S
H733       C1484   1.084       .  S
C734        H745   1.110       .  S
C734        H746   1.110       .  S
C734        H747   1.107       .  S
C736        C737   1.393       .  A
C736        C741   1.506       .  S
C737        C738   1.397       .  A
C737        H742   1.085       .  S
C738        C739   1.408       .  A
C739        C740   1.394       .  A
C739        C743   1.506       .  S
C740       H1500   1.084       .  S
C741        H751   1.111       .  S
C741        H752   1.109       .  S
C741        H753   1.104       .  S
C743        H754   1.111       .  S
C743        H755   1.104       .  S
C743        H756   1.108       .  S
H744       C1496   1.084       .  S
C757        C758   1.385       .  A
C757        C762   1.385       .  A
C757        C918   1.457       .  S
C758        C759   1.397       .  A
C759        C760   1.440       .  A
C759        C794   1.502       .  S
C760        C761   1.440       .  A
C760        H764   1.083       .  S
C761        C762   1.394       .  A
C761        C819   1.501       .  S
C762        H765   1.087       .  S
C766        C767   1.397       .  A
C766        C771   1.393       .  A
C766        C886   1.481       .  S
C767        C768   1.404       .  A
C768        C769   1.434       .  A
C768        C785   1.508       .  S
C769        C770   1.432       .  A
C769        H773   1.082       .  S
C770        C771   1.393       .  A
C770        C843   1.493       .  S
C771        H774   1.086       .  S
C775        C776   1.387       .  A
C775        C780   1.383       .  A
C775        C927   1.457       .  S
C776        C777   1.396       .  A
C776        H781   1.085       .  S
C777        C778   1.438       .  A
C777        C816   1.500       .  S
C778        C779   1.438       .  A
C778        H782   1.082       .  S
C779        C780   1.391       .  A
C779        C790   1.493       .  S
C780        H783   1.087       .  S
In784       O795   2.281       .  S
In784       O789   2.283       .  S
In784       O791   2.341   1_655  S
In784       O792   2.312       .  S
In784       O796   2.259       .  S
C785        O793   1.262       .  A
O786        C794   1.261       .  A
O787        C794   1.262       .  A
C788        C832   1.487       .  S
C788        O795   1.259       .  A
C788        O789   1.266       .  A
C790        O792   1.267       .  A
C790        O796   1.263       .  A
C797        C798   1.395   1_565  A
C797       C1180   1.396       .  A
C797       C1241   1.479       .  S
C798        C799   1.399       .  A
C798        H803   1.085       .  S
C799        C800   1.436       .  A
C799        C825   1.508       .  S
C800        C801   1.435       .  A
C800        H804   1.081       .  S
C801       C1180   1.396   1_545  A
C801       C1216   1.499   1_545  S
C802       C1175   1.396       .  A
C802       C1179   1.396       .  A
C802        H805   1.086       .  S
C806        C807   1.394       .  A
C806        C811   1.385       .  A
C806        C854   1.461       .  S
C807        C808   1.402       .  A
C807        H812   1.086       .  S
C808        C809   1.434       .  A
C808        C841   1.502       .  S
C809        C810   1.433       .  A
C809        H813   1.082       .  S
C810        C811   1.392       .  A
C810        C821   1.490       .  S
C811        H814   1.088       .  S
In815       O817   2.259       .  S
In815       O818   2.340       .  S
In815       O826   2.268       .  S
In815       O820   2.328       .  S
In815       O822   2.334       .  S
In815       O823   2.301       .  S
In815       O824   2.256       .  S
In815       O827   2.264       .  S
C816        O822   1.262       .  A
C816        O824   1.261       .  A
O817        C825   1.262       .  A
O818        C825   1.263       .  A
C819        O826   1.264       .  A
C819        O820   1.265       .  A
C821        O823   1.267       .  A
C821        O827   1.262       .  A
C828       C1207   1.399       .  A
C828        C833   1.382       .  A
C828       C1273   1.465       .  S
C829       C1206   1.399       .  A
C829       C1208   1.408       .  A
C829        H834   1.083       .  S
C830       C1207   1.408       .  A
C830        C831   1.434       .  A
C830       C1225   1.509   1_545  S
C831        C832   1.433       .  A
C831        H835   1.083       .  S
C832        C833   1.390       .  A
C833        H836   1.087       .  S
In837       O839   2.266       .  S
In837      O1029   2.340   1_554  S
In837      O1037   2.261   1_554  S
In837       O842   2.321       .  S
In837       O844   2.318       .  S
In837      O1034   2.297   1_554  S
In837      O1035   2.285       .  S
In837       O849   2.284   1_554  S
C838       C1179   1.499       .  S
C838        O844   1.264       .  A
C838       O1035   1.260       .  A
O839       C1036   1.262   1_554  A
O840      In1026   2.340       .  S
O840        C847   1.266       .  A
C841       O1037   1.264   1_554  A
C841        O842   1.266       .  A
C843        O845   1.267       .  A
C843       O1038   1.259       .  A
O845      In1026   2.297       .  S
O846      In1026   2.285       .  S
O846       C1027   1.260       .  A
C847       C1208   1.509       .  S
C847       O1028   1.262       .  A
O848      In1026   2.261       .  S
O848       C1030   1.264       .  A
O849       C1032   1.259       .  A
C850        C851   1.396       .  A
C850        C855   1.391       .  A
C850        H860   1.076       .  S
C851        C852   1.411       .  A
C851        C856   1.468       .  S
C852        C853   1.402       .  A
C852        C857   1.504       .  S
C853        C854   1.399       .  A
C853        H858   1.084       .  S
C854        C855   1.411       .  A
C855        C859   1.508       .  S
C857        H873   1.108       .  S
C857        H874   1.108       .  S
C857        H875   1.108   1_554  S
C859        H870   1.110       .  S
C859        H871   1.110       .  S
C859        H872   1.110       .  S
C861        C862   1.393       .  A
C862        C863   1.405       .  A
C862       H1245   1.084       .  S
C863        C864   1.416       .  A
C863       C1175   1.479       .  S
C864        C865   1.400       .  A
C864        C868   1.508       .  S
C866        H877   1.107       .  S
C866        H878   1.110       .  S
H867       C1240   1.084   1_545  S
C868        H879   1.109       .  S
C868        H880   1.108       .  S
C868        H881   1.110       .  S
C882        C887   1.399       .  A
C882        H892   1.084       .  S
C883        C884   1.408   1_455  A
C883        C888   1.466   1_455  S
C884        C885   1.396   1_655  A
C884        C889   1.509       .  S
C885        H890   1.084   1_455  S
C886        C887   1.420       .  A
C887        C891   1.509       .  S
C888        C893   1.408       .  A
C888        C897   1.394       .  A
C889        H905   1.107       .  S
C889        H906   1.110       .  S
C889        H907   1.110       .  S
C891        H902   1.110       .  S
C891        H903   1.110       .  S
C891        H904   1.108       .  S
C893        C894   1.402       .  A
C894        C895   1.399       .  A
C894       H1277   1.084       .  S
C895        C896   1.415       .  A
C895       C1206   1.465       .  S
C896        C897   1.394       .  A
C896        C900   1.509       .  S
C897        H901   1.081       .  S
C898       H1286   1.107       .  S
C898        H909   1.110       .  S
H899       C1272   1.084       .  S
C900        H911   1.111       .  S
C900        H912   1.110       .  S
C900        H913   1.110       .  S
H908       C1276   1.107       .  S
C914        C915   1.399       .  A
C914        H924   1.085       .  S
C915        C916   1.408   1_655  A
C915        C920   1.463       .  S
C916       C1295   1.393       .  A
C916        C921   1.505       .  S
C917       C1294   1.393   1_545  A
C918        C919   1.411       .  A
C919        C923   1.508       .  S
C920        C925   1.411       .  A
C920        C929   1.400       .  A
C921        H937   1.108       .  S
C921        H938   1.109       .  S
C921        H939   1.108       .  S
C923        H934   1.110       .  S
C923        H935   1.110       .  S
C923        H936   1.107       .  S
C925        C926   1.393       .  A
C925        C930   1.506       .  S
C926        C927   1.397       .  A
C926        H931   1.085       .  S
C927        C928   1.408       .  A
C928        C929   1.394       .  A
C928        C932   1.506       .  S
C930        H940   1.111       .  S
C930        H941   1.109       .  S
C930        H942   1.104       .  S
C932        H943   1.111       .  S
C932        H944   1.104       .  S
C932        H945   1.108       .  S
C946        C947   1.385       .  A
C946        C951   1.385       .  A
C946       C1107   1.457       .  S
C947        C948   1.397       .  A
C948        C949   1.440       .  A
C948        C983   1.502       .  S
C949        C950   1.440       .  A
C949        H953   1.083       .  S
C950        C951   1.394       .  A
C950       C1008   1.501       .  S
C951        H954   1.087       .  S
C955        C956   1.397       .  A
C955        C960   1.393       .  A
C955       C1075   1.481       .  S
C956        C957   1.404       .  A
C957        C958   1.434       .  A
C957        C974   1.508       .  S
C958        C959   1.432       .  A
C958        H962   1.082       .  S
C959        C960   1.393       .  A
C959       C1032   1.493       .  S
C960        H963   1.086       .  S
C964        C965   1.387       .  A
C964        C969   1.383       .  A
C964       C1116   1.457       .  S
C965        C966   1.396       .  A
C965        H970   1.085       .  S
C966        C967   1.438       .  A
C966       C1005   1.500       .  S
C967        C968   1.438       .  A
C967        H971   1.082       .  S
C968        C969   1.391       .  A
C968        C979   1.493       .  S
C969        H972   1.087       .  S
In973       O984   2.281       .  S
In973       O978   2.283       .  S
In973       O980   2.341   1_655  S
In973       O981   2.312       .  S
In973       O985   2.259       .  S
C974        O982   1.262       .  A
O975        C983   1.261       .  A
O976        C983   1.262       .  A
C977       C1021   1.487       .  S
C977        O984   1.259       .  A
C977        O978   1.266       .  A
C979        O981   1.267       .  A
C979        O985   1.263       .  A
C986        C987   1.395   1_565  A
C986       C1369   1.396       .  A
C986       C1430   1.479       .  S
C987        C988   1.399       .  A
C987        H992   1.085       .  S
C988        C989   1.436       .  A
C988       C1014   1.508       .  S
C989        C990   1.435       .  A
C989        H993   1.081       .  S
C990       C1369   1.396   1_545  A
C990       C1405   1.499   1_545  S
C991       C1364   1.396       .  A
C991       C1368   1.396       .  A
C991        H994   1.086       .  S
C995        C996   1.394       .  A
C995       C1000   1.385       .  A
C995       C1043   1.461       .  S
C996        C997   1.402       .  A
C996       H1001   1.086       .  S
C997        C998   1.434       .  A
C997       C1030   1.502       .  S
C998        C999   1.433       .  A
C998       H1002   1.082       .  S
C999       C1000   1.392       .  A
C999       C1010   1.490       .  S
C1000      H1003   1.088       .  S
In1004     O1006   2.259       .  S
In1004     O1007   2.340       .  S
In1004     O1015   2.268       .  S
In1004     O1009   2.328       .  S
In1004     O1011   2.334       .  S
In1004     O1012   2.301       .  S
In1004     O1013   2.256       .  S
In1004     O1016   2.264       .  S
C1005      O1011   1.262       .  A
C1005      O1013   1.261       .  A
O1006      C1014   1.262       .  A
O1007      C1014   1.263       .  A
C1008      O1015   1.264       .  A
C1008      O1009   1.265       .  A
C1010      O1012   1.267       .  A
C1010      O1016   1.262       .  A
C1017      C1396   1.399       .  A
C1017      C1022   1.382       .  A
C1017      C1462   1.465       .  S
C1018      C1395   1.399       .  A
C1018      C1397   1.408       .  A
C1018      H1023   1.083       .  S
C1019      C1396   1.408       .  A
C1019      C1020   1.434       .  A
C1019      C1414   1.509   1_545  S
C1020      C1021   1.433       .  A
C1020      H1024   1.083       .  S
C1021      C1022   1.390       .  A
C1022      H1025   1.087       .  S
In1026     O1028   2.266       .  S
In1026     O1031   2.321       .  S
In1026     O1033   2.318       .  S
In1026     O1038   2.284       .  S
C1027      C1368   1.499       .  S
C1027      O1033   1.264       .  A
O1029      C1036   1.266       .  A
C1030      O1031   1.266       .  A
C1032      O1034   1.267       .  A
C1036      C1397   1.509       .  S
C1039      C1040   1.396       .  A
C1039      C1044   1.391       .  A
C1039      H1049   1.076       .  S
C1040      C1041   1.411       .  A
C1040      C1045   1.468       .  S
C1041      C1042   1.402       .  A
C1041      C1046   1.504       .  S
C1042      C1043   1.399       .  A
C1042      H1047   1.084       .  S
C1043      C1044   1.411       .  A
C1044      C1048   1.508       .  S
C1046      H1062   1.108       .  S
C1046      H1063   1.108       .  S
C1046      H1064   1.108       .  S
C1048      H1059   1.110       .  S
C1048      H1060   1.110       .  S
C1048      H1061   1.110       .  S
C1050      C1051   1.393       .  A
C1051      C1052   1.405       .  A
C1051      H1434   1.084       .  S
C1052      C1053   1.416       .  A
C1052      C1364   1.479       .  S
C1053      C1054   1.400       .  A
C1053      C1057   1.508       .  S
C1055      H1066   1.107       .  S
C1055      H1067   1.110       .  S
H1056      C1429   1.084   1_545  S
C1057      H1068   1.109       .  S
C1057      H1069   1.108       .  S
C1057      H1070   1.110       .  S
C1071      C1076   1.399       .  A
C1071      H1081   1.084       .  S
C1072      C1073   1.408   1_455  A
C1072      C1077   1.466   1_455  S
C1073      C1074   1.396   1_655  A
C1073      C1078   1.509       .  S
C1074      H1079   1.084   1_455  S
C1075      C1076   1.420       .  A
C1076      C1080   1.509       .  S
C1077      C1082   1.408       .  A
C1077      C1086   1.394       .  A
C1078      H1094   1.107       .  S
C1078      H1095   1.110       .  S
C1078      H1096   1.110       .  S
C1080      H1091   1.110       .  S
C1080      H1092   1.110       .  S
C1080      H1093   1.108       .  S
C1082      C1083   1.402       .  A
C1083      C1084   1.399       .  A
C1083      H1466   1.084       .  S
C1084      C1085   1.415       .  A
C1084      C1395   1.465       .  S
C1085      C1086   1.394       .  A
C1085      C1089   1.509       .  S
C1086      H1090   1.081       .  S
C1087      H1475   1.107   1_556  S
C1087      H1098   1.110       .  S
H1088      C1461   1.084       .  S
C1089      H1100   1.111       .  S
C1089      H1101   1.110       .  S
C1089      H1102   1.110       .  S
H1097      C1465   1.107   1_554  S
C1103      C1104   1.399       .  A
C1103      H1113   1.085       .  S
C1104      C1105   1.408   1_655  A
C1104      C1109   1.463       .  S
C1105      C1484   1.393       .  A
C1105      C1110   1.505       .  S
C1106      C1483   1.393   1_545  A
C1107      C1108   1.411       .  A
C1108      C1112   1.508       .  S
C1109      C1114   1.411       .  A
C1109      C1118   1.400       .  A
C1110      H1126   1.108       .  S
C1110      H1127   1.109       .  S
C1110      H1128   1.108       .  S
C1112      H1123   1.110       .  S
C1112      H1124   1.110       .  S
C1112      H1125   1.107       .  S
C1114      C1115   1.393       .  A
C1114      C1119   1.506       .  S
C1115      C1116   1.397       .  A
C1115      H1120   1.085       .  S
C1116      C1117   1.408       .  A
C1117      C1118   1.394       .  A
C1117      C1121   1.506       .  S
C1119      H1129   1.111       .  S
C1119      H1130   1.109       .  S
C1119      H1131   1.104       .  S
C1121      H1132   1.111       .  S
C1121      H1133   1.104       .  S
C1121      H1134   1.108       .  S
C1135      C1136   1.385       .  A
C1135      C1140   1.385       .  A
C1135      C1296   1.457       .  S
C1136      C1137   1.397       .  A
C1137      C1138   1.440       .  A
C1137      C1172   1.502       .  S
C1138      C1139   1.440       .  A
C1138      H1142   1.083       .  S
C1139      C1140   1.394       .  A
C1139      C1197   1.501       .  S
C1140      H1143   1.087       .  S
C1144      C1145   1.397       .  A
C1144      C1149   1.393       .  A
C1144      C1264   1.481       .  S
C1145      C1146   1.404       .  A
C1146      C1147   1.434       .  A
C1146      C1163   1.508       .  S
C1147      C1148   1.432       .  A
C1147      H1151   1.082       .  S
C1148      C1149   1.393       .  A
C1148      C1221   1.493       .  S
C1149      H1152   1.086       .  S
C1153      C1154   1.387       .  A
C1153      C1158   1.383       .  A
C1153      C1305   1.457       .  S
C1154      C1155   1.396       .  A
C1154      H1159   1.085       .  S
C1155      C1156   1.438       .  A
C1155      C1194   1.500       .  S
C1156      C1157   1.438       .  A
C1156      H1160   1.082       .  S
C1157      C1158   1.391       .  A
C1157      C1168   1.493       .  S
C1158      H1161   1.087       .  S
In1162     O1173   2.281       .  S
In1162     O1167   2.283       .  S
In1162     O1169   2.341   1_655  S
In1162     O1170   2.312       .  S
In1162     O1174   2.259       .  S
C1163      O1171   1.262       .  A
O1164      C1172   1.261       .  A
O1165      C1172   1.262       .  A
C1166      C1210   1.487       .  S
C1166      O1173   1.259       .  A
C1166      O1167   1.266       .  A
C1168      O1170   1.267       .  A
C1168      O1174   1.263       .  A
C1175      C1176   1.395       .  A
C1176      C1177   1.399       .  A
C1176      H1181   1.085       .  S
C1177      C1178   1.436       .  A
C1177      C1203   1.508       .  S
C1178      C1179   1.435       .  A
C1178      H1182   1.081       .  S
C1180      H1183   1.086       .  S
C1184      C1185   1.394       .  A
C1184      C1189   1.385       .  A
C1184      C1232   1.461       .  S
C1185      C1186   1.402       .  A
C1185      H1190   1.086       .  S
C1186      C1187   1.434       .  A
C1186      C1219   1.502       .  S
C1187      C1188   1.433       .  A
C1187      H1191   1.082       .  S
C1188      C1189   1.392       .  A
C1188      C1199   1.490       .  S
C1189      H1192   1.088       .  S
In1193     O1195   2.259       .  S
In1193     O1196   2.340       .  S
In1193     O1204   2.268       .  S
In1193     O1198   2.328       .  S
In1193     O1200   2.334       .  S
In1193     O1201   2.301       .  S
In1193     O1202   2.256       .  S
In1193     O1205   2.264       .  S
C1194      O1200   1.262       .  A
C1194      O1202   1.261       .  A
O1195      C1203   1.262       .  A
O1196      C1203   1.263       .  A
C1197      O1204   1.264       .  A
C1197      O1198   1.265       .  A
C1199      O1201   1.267       .  A
C1199      O1205   1.262       .  A
C1206      C1211   1.382       .  A
C1207      H1212   1.083   1_545  S
C1208      C1209   1.434       .  A
C1209      C1210   1.433       .  A
C1209      H1213   1.083       .  S
C1210      C1211   1.390       .  A
C1211      H1214   1.087       .  S
In1215     O1217   2.266       .  S
In1215     O1407   2.340   1_554  S
In1215     O1415   2.261   1_554  S
In1215     O1220   2.321       .  S
In1215     O1222   2.318       .  S
In1215     O1412   2.297   1_554  S
In1215     O1413   2.285       .  S
In1215     O1227   2.284   1_554  S
C1216      O1222   1.264       .  A
C1216      O1413   1.260       .  A
O1217      C1414   1.262   1_554  A
O1218     In1404   2.340       .  S
O1218      C1225   1.266       .  A
C1219      O1415   1.264   1_554  A
C1219      O1220   1.266       .  A
C1221      O1223   1.267       .  A
C1221      O1416   1.259       .  A
O1223     In1404   2.297       .  S
O1224     In1404   2.285       .  S
O1224      C1405   1.260       .  A
C1225      O1406   1.262       .  A
O1226     In1404   2.261       .  S
O1226      C1408   1.264       .  A
O1227      C1410   1.259       .  A
C1228      C1229   1.396       .  A
C1228      C1233   1.391       .  A
C1228      H1238   1.076       .  S
C1229      C1230   1.411       .  A
C1229      C1234   1.468       .  S
C1230      C1231   1.402       .  A
C1230      C1235   1.504       .  S
C1231      C1232   1.399       .  A
C1231      H1236   1.084       .  S
C1232      C1233   1.411       .  A
C1233      C1237   1.508       .  S
C1235      H1251   1.108       .  S
C1235      H1252   1.108       .  S
C1235      H1253   1.108   1_554  S
C1237      H1248   1.110       .  S
C1237      H1249   1.110       .  S
C1237      H1250   1.110       .  S
C1239      C1240   1.393       .  A
C1240      C1241   1.405       .  A
C1241      C1242   1.416       .  A
C1242      C1243   1.400       .  A
C1242      C1246   1.508       .  S
C1244      H1255   1.107       .  S
C1244      H1256   1.110       .  S
C1246      H1257   1.109       .  S
C1246      H1258   1.108       .  S
C1246      H1259   1.110       .  S
C1260      C1265   1.399       .  A
C1260      H1270   1.084   1_565  S
C1261      C1262   1.408   1_455  A
C1261      C1266   1.466   1_455  S
C1262      C1263   1.396   1_655  A
C1262      C1267   1.509       .  S
C1263      H1268   1.084   1_455  S
C1264      C1265   1.420       .  A
C1265      C1269   1.509       .  S
C1266      C1271   1.408   1_565  A
C1266      C1275   1.394       .  A
C1267      H1283   1.107       .  S
C1267      H1284   1.110       .  S
C1267      H1285   1.110       .  S
C1269      H1280   1.110       .  S
C1269      H1281   1.110       .  S
C1269      H1282   1.108       .  S
C1271      C1272   1.402       .  A
C1272      C1273   1.399       .  A
C1273      C1274   1.415       .  A
C1274      C1275   1.394   1_545  A
C1274      C1278   1.509       .  S
C1275      H1279   1.081       .  S
C1276      H1287   1.110       .  S
C1278      H1289   1.111       .  S
C1278      H1290   1.110       .  S
C1278      H1291   1.110   1_545  S
C1292      C1293   1.399       .  A
C1292      H1302   1.085       .  S
C1293      C1294   1.408   1_655  A
C1293      C1298   1.463       .  S
C1294      C1299   1.505       .  S
C1296      C1297   1.411       .  A
C1297      C1301   1.508       .  S
C1298      C1303   1.411       .  A
C1298      C1307   1.400       .  A
C1299      H1315   1.108       .  S
C1299      H1316   1.109       .  S
C1299      H1317   1.108       .  S
C1301      H1312   1.110       .  S
C1301      H1313   1.110       .  S
C1301      H1314   1.107       .  S
C1303      C1304   1.393       .  A
C1303      C1308   1.506       .  S
C1304      C1305   1.397       .  A
C1304      H1309   1.085       .  S
C1305      C1306   1.408       .  A
C1306      C1307   1.394       .  A
C1306      C1310   1.506       .  S
C1308      H1318   1.111       .  S
C1308      H1319   1.109       .  S
C1308      H1320   1.104       .  S
C1310      H1321   1.111       .  S
C1310      H1322   1.104       .  S
C1310      H1323   1.108       .  S
C1324      C1325   1.385       .  A
C1324      C1329   1.385       .  A
C1324      C1485   1.457       .  S
C1325      C1326   1.397       .  A
C1326      C1327   1.440       .  A
C1326      C1361   1.502       .  S
C1327      C1328   1.440       .  A
C1327      H1331   1.083       .  S
C1328      C1329   1.394       .  A
C1328      C1386   1.501       .  S
C1329      H1332   1.087       .  S
C1333      C1334   1.397       .  A
C1333      C1338   1.393       .  A
C1333      C1453   1.481       .  S
C1334      C1335   1.404       .  A
C1335      C1336   1.434       .  A
C1335      C1352   1.508       .  S
C1336      C1337   1.432       .  A
C1336      H1340   1.082       .  S
C1337      C1338   1.393       .  A
C1337      C1410   1.493       .  S
C1338      H1341   1.086       .  S
C1342      C1343   1.387       .  A
C1342      C1347   1.383       .  A
C1342      C1494   1.457       .  S
C1343      C1344   1.396       .  A
C1343      H1348   1.085       .  S
C1344      C1345   1.438       .  A
C1344      C1383   1.500       .  S
C1345      C1346   1.438       .  A
C1345      H1349   1.082       .  S
C1346      C1347   1.391       .  A
C1346      C1357   1.493       .  S
C1347      H1350   1.087       .  S
In1351     O1362   2.281       .  S
In1351     O1356   2.283       .  S
In1351     O1358   2.341   1_655  S
In1351     O1359   2.312       .  S
In1351     O1363   2.259       .  S
C1352      O1360   1.262       .  A
O1353      C1361   1.261       .  A
O1354      C1361   1.262       .  A
C1355      C1399   1.487       .  S
C1355      O1362   1.259       .  A
C1355      O1356   1.266       .  A
C1357      O1359   1.267       .  A
C1357      O1363   1.263       .  A
C1364      C1365   1.395       .  A
C1365      C1366   1.399       .  A
C1365      H1370   1.085       .  S
C1366      C1367   1.436       .  A
C1366      C1392   1.508       .  S
C1367      C1368   1.435       .  A
C1367      H1371   1.081       .  S
C1369      H1372   1.086       .  S
C1373      C1374   1.394       .  A
C1373      C1378   1.385       .  A
C1373      C1421   1.461       .  S
C1374      C1375   1.402       .  A
C1374      H1379   1.086       .  S
C1375      C1376   1.434       .  A
C1375      C1408   1.502       .  S
C1376      C1377   1.433       .  A
C1376      H1380   1.082       .  S
C1377      C1378   1.392       .  A
C1377      C1388   1.490       .  S
C1378      H1381   1.088       .  S
In1382     O1384   2.259       .  S
In1382     O1385   2.340       .  S
In1382     O1393   2.268       .  S
In1382     O1387   2.328       .  S
In1382     O1389   2.334       .  S
In1382     O1390   2.301       .  S
In1382     O1391   2.256       .  S
In1382     O1394   2.264       .  S
C1383      O1389   1.262       .  A
C1383      O1391   1.261       .  A
O1384      C1392   1.262       .  A
O1385      C1392   1.263       .  A
C1386      O1393   1.264       .  A
C1386      O1387   1.265       .  A
C1388      O1390   1.267       .  A
C1388      O1394   1.262       .  A
C1395      C1400   1.382       .  A
C1396      H1401   1.083   1_545  S
C1397      C1398   1.434       .  A
C1398      C1399   1.433       .  A
C1398      H1402   1.083       .  S
C1399      C1400   1.390       .  A
C1400      H1403   1.087       .  S
In1404     O1406   2.266       .  S
In1404     O1409   2.321       .  S
In1404     O1411   2.318       .  S
In1404     O1416   2.284       .  S
C1405      O1411   1.264       .  A
O1407      C1414   1.266       .  A
C1408      O1409   1.266       .  A
C1410      O1412   1.267       .  A
C1417      C1418   1.396       .  A
C1417      C1422   1.391       .  A
C1417      H1427   1.076       .  S
C1418      C1419   1.411       .  A
C1418      C1423   1.468       .  S
C1419      C1420   1.402       .  A
C1419      C1424   1.504       .  S
C1420      C1421   1.399       .  A
C1420      H1425   1.084       .  S
C1421      C1422   1.411       .  A
C1422      C1426   1.508       .  S
C1424      H1440   1.108       .  S
C1424      H1441   1.108       .  S
C1424      H1442   1.108       .  S
C1426      H1437   1.110       .  S
C1426      H1438   1.110       .  S
C1426      H1439   1.110       .  S
C1428      C1429   1.393       .  A
C1429      C1430   1.405       .  A
C1430      C1431   1.416       .  A
C1431      C1432   1.400       .  A
C1431      C1435   1.508       .  S
C1433      H1444   1.107       .  S
C1433      H1445   1.110       .  S
C1435      H1446   1.109       .  S
C1435      H1447   1.108       .  S
C1435      H1448   1.110       .  S
C1449      C1454   1.399       .  A
C1449      H1459   1.084   1_565  S
C1450      C1451   1.408   1_455  A
C1450      C1455   1.466   1_455  S
C1451      C1452   1.396   1_655  A
C1451      C1456   1.509       .  S
C1452      H1457   1.084   1_455  S
C1453      C1454   1.420       .  A
C1454      C1458   1.509       .  S
C1455      C1460   1.408   1_565  A
C1455      C1464   1.394       .  A
C1456      H1472   1.107       .  S
C1456      H1473   1.110       .  S
C1456      H1474   1.110       .  S
C1458      H1469   1.110       .  S
C1458      H1470   1.110       .  S
C1458      H1471   1.108       .  S
C1460      C1461   1.402       .  A
C1461      C1462   1.399       .  A
C1462      C1463   1.415       .  A
C1463      C1464   1.394   1_545  A
C1463      C1467   1.509       .  S
C1464      H1468   1.081       .  S
C1465      H1476   1.110       .  S
C1467      H1478   1.111       .  S
C1467      H1479   1.110       .  S
C1467      H1480   1.110   1_545  S
C1481      C1482   1.399       .  A
C1481      H1491   1.085       .  S
C1482      C1483   1.408   1_655  A
C1482      C1487   1.463       .  S
C1483      C1488   1.505       .  S
C1485      C1486   1.411       .  A
C1486      C1490   1.508       .  S
C1487      C1492   1.411       .  A
C1487      C1496   1.400       .  A
C1488      H1504   1.108       .  S
C1488      H1505   1.109       .  S
C1488      H1506   1.108       .  S
C1490      H1501   1.110       .  S
C1490      H1502   1.110       .  S
C1490      H1503   1.107       .  S
C1492      C1493   1.393       .  A
C1492      C1497   1.506       .  S
C1493      C1494   1.397       .  A
C1493      H1498   1.085       .  S
C1494      C1495   1.408       .  A
C1495      C1496   1.394       .  A
C1495      C1499   1.506       .  S
C1497      H1507   1.111       .  S
C1497      H1508   1.109       .  S
C1497      H1509   1.104       .  S
C1499      H1510   1.111       .  S
C1499      H1511   1.104       .  S
C1499      H1512   1.108       .  S
