geometry optimzed in LAMMPS
_audit_creation_date              2020-11-30 
_audit_creation_method            'lammps2cif' 
_symmetry_space_group_name_H-M    'P1' 
_symmetry_Int_Tables_number       1 
_symmetry_cell_setting            triclinic 
loop_ 
_symmetry_equiv_pos_as_xyz 
  x,y,z 
_cell_length_a                    51.05008289 
_cell_length_b                    52.20986341534243 
_cell_length_c                    40.56555246857233 
_cell_angle_alpha                 90.16389608136593 
_cell_angle_beta                  90.00435656682808 
_cell_angle_gamma                 90.0966914974875 
loop_ 
_atom_site_label 
_atom_site_type_symbol 
_atom_site_fract_x 
_atom_site_fract_y 
_atom_site_fract_z 
_atom_site_charge 
O1          O  0.24745026  0.21744341  0.40445889    -0.80400
O2          O  0.24507392  0.21440067  0.59374624    -0.81900
O3          O  0.28550777  0.18497021  0.49810433    -0.78900
O4          O  0.20002871  0.18989890  0.49882004    -0.77300
O5          O  0.16959602  0.22178986  0.49970894    -0.79100
O6          O  0.31894871  0.21395813  0.49805950    -0.80100
O7          O  0.24275413  0.18563979  0.55136501    -0.81400
O8          O  0.24563112  0.18731096  0.44546323    -0.81700
Eu9        Eu  0.24417772  0.20847618  0.49880220     2.39200
O10         O  0.21917189  0.23453373  0.53353131    -0.89200
O11         O  0.27161133  0.23329003  0.46503151    -0.92800
C12         C  0.24725151  0.19402339  0.41503043     1.01900
C13         C  0.24345143  0.19119604  0.58236073     1.01700
C14         C  0.31002739  0.19081147  0.49803100     1.01700
C15         C  0.17616331  0.19798580  0.49928673     0.99500
H16         H  0.28279698  0.22039251  0.54642426     0.29300
O17         O  0.27227502  0.23189933  0.53339389    -1.01600
H18         H  0.20806396  0.22508933  0.45086435     0.29300
O19         O  0.21948727  0.23543000  0.46448609    -1.04100
O20         O  0.24876393  0.30032664  0.59665846    -0.81300
O21         O  0.24850390  0.30487281  0.40642218    -0.80900
O22         O  0.32202136  0.25629422  0.55224365    -0.79300
O23         O  0.17242213  0.26186918  0.55340573    -0.82700
O24         O  0.17283961  0.26233346  0.44543958    -0.80500
O25         O  0.32174600  0.25620566  0.44596885    -0.79200
O26         O  0.29326694  0.33015273  0.50246766    -0.80700
O27         O  0.20896442  0.33385774  0.50040216    -0.82600
O28         O  0.32317432  0.29792008  0.50110113    -0.79300
O29         O  0.17584167  0.30459736  0.49694843    -0.82000
O30         O  0.29195784  0.25739400  0.59399554    -0.77700
O31         O  0.29168046  0.25939244  0.40433383    -0.77800
O32         O  0.20300981  0.26170087  0.40381677    -0.77400
O33         O  0.20282619  0.25945183  0.59479402    -0.80900
O34         O  0.25147320  0.33082104  0.55628668    -0.80300
O35         O  0.25030798  0.33318387  0.44944963    -0.78700
Eu36       Eu  0.24712452  0.25806628  0.56882218     2.39800
Eu37       Eu  0.24719528  0.26073757  0.43055298     2.39600
Eu38       Eu  0.29952959  0.25693115  0.49938519     2.38400
Eu39       Eu  0.19456722  0.26178307  0.49953215     2.39900
Eu40       Eu  0.24994571  0.31031929  0.50179963     2.39800
O41         O  0.22238436  0.28676275  0.46657341    -0.93100
O42         O  0.27483856  0.28296348  0.53492363    -0.92000
C43         C  0.25064131  0.32379975  0.58674436     1.02100
C44         C  0.24985627  0.32795296  0.41840452     1.00800
C45         C  0.31587692  0.25704439  0.58300661     1.00200
C46         C  0.17888573  0.26055115  0.58416698     1.02200
C47         C  0.17905058  0.26219587  0.41455656     1.01100
C48         C  0.31552943  0.25727424  0.41519546     1.00000
C49         C  0.31701382  0.32184935  0.50196361     1.00000
C50         C  0.18465233  0.32771350  0.49778308     1.02600
H51         H  0.28650621  0.29522835  0.45305767     0.30000
O52         O  0.27492138  0.28461495  0.46602005    -1.05300
H53         H  0.21140654  0.29677167  0.54850484     0.32100
O54         O  0.22194551  0.28561039  0.53496951    -1.07800
N55         N  0.03693564  0.01110860  0.50107289    -0.36900
N56         N  0.49479082  0.04890764  0.49305203    -0.57400
N57         N  0.45893141  0.00746830  0.49950915    -0.36800
N58         N  0.50079532  0.47015917  0.49662821    -0.57400
C59         C  0.04980871  0.03314460  0.50750814     0.26700
C60         C  0.05477709  0.49096839  0.50421078     0.26700
C61         C  0.44302969  0.02732087  0.50695919     0.26700
C62         C  0.44498036  0.48450651  0.50072924     0.26700
C63         C  0.01545695  0.06354520  0.48927573     0.35400
C64         C  0.47229486  0.06172273  0.48751481     0.35400
C65         C  0.02308897  0.45559160  0.49241991     0.35400
C66         C  0.48105268  0.45398968  0.48919938     0.35400
C67         C  0.07364368  0.02776372  0.52237224    -0.22100
C68         C  0.07912048  0.49981393  0.51439262    -0.22100
C69         C  0.42051529  0.01831421  0.52215182    -0.22100
C70         C  0.42017009  0.49001328  0.51272232    -0.22100
C71         C  0.00689220  0.08688383  0.47713577    -0.23200
C72         C  0.47752288  0.08543720  0.47374997    -0.23200
C73         C  0.01717509  0.43052424  0.48364617    -0.23200
C74         C  0.49083654  0.43020088  0.48032874    -0.23200
C75         C  0.04151514  0.05767788  0.49755576    -0.18500
C76         C  0.04851088  0.46495102  0.49873349    -0.18500
C77         C  0.45439256  0.45968407  0.49388616    -0.18500
C78         C  0.44742327  0.05284634  0.49723288    -0.18500
H79         H  0.08857392  0.04130395  0.52993055     0.14400
H80         H  0.09618739  0.48854774  0.52061231     0.14400
H81         H  0.40380477  0.02936935  0.53030683     0.14400
H82         H  0.40501388  0.47653263  0.51961911     0.14400
H83         H  0.01871224  0.10332056  0.47054492     0.12700
H84         H  0.46362508  0.10021536  0.46725739     0.12700
H85         H  0.03067094  0.41490248  0.47934420     0.12700
H86         H  0.47980830  0.41319144  0.47385111     0.12700
H87         H  0.02042192  0.00931950  0.48624248     0.25900
H88         H  0.47514370  0.00799291  0.48399595     0.25900
O89         O  0.50136318  0.44538807  0.90220275    -0.80400
O90         O  0.49682204  0.44717024  0.09267012    -0.81900
O91         O  0.04590616  0.41850702  0.99680448    -0.78900
O92         O  0.46008728  0.41402468  0.99837328    -0.77300
O93         O  0.42696194  0.44318627  0.99632269    -0.79100
O94         O  0.07624909  0.45050520  0.00012842    -0.80100
O95         O  0.49955168  0.41676899  0.05216357    -0.81400
O96         O  0.50185373  0.41527994  0.94330107    -0.81700
Eu97       Eu  0.50155502  0.43689553  0.99741462     2.39200
O98         O  0.47336384  0.46206128  0.02967916    -0.89200
O99         O  0.02822710  0.46431583  0.96403771    -0.92800
C100        C  0.50135131  0.42202522  0.91268229     1.01900
C101        C  0.49759744  0.42368803  0.08270016     1.01700
C102        C  0.06967808  0.42668139  0.99866410     1.01700
C103        C  0.43566768  0.41997381  0.99766457     0.99500
H104        H  0.03778210  0.45291484  0.04619648     0.29300
O105        O  0.02655059  0.46339933  0.03270877    -1.01600
H106        H  0.46481620  0.45019295  0.94872044     0.29300
O107        O  0.47518045  0.46154982  0.96227647    -1.04100
O108        O  0.49878733  0.03183747  0.09806848    -0.81300
O109        O  0.49897711  0.03143607  0.90764530    -0.80900
O110        O  0.07267061  0.49165869  0.05420430    -0.79300
O111        O  0.42312843  0.48574739  0.04707834    -0.82700
O112        O  0.42680549  0.48346430  0.94013587    -0.80500
O113        O  0.07551988  0.49205368  0.94781284    -0.79200
O114        O  0.03797881  0.06272257  0.00785072    -0.80700
O115        O  0.45570839  0.06041331  0.00373580    -0.82600
O116        O  0.07110601  0.03354698  0.00787272    -0.79300
O117        O  0.42455258  0.02899592  0.00249746    -0.82000
O118        O  0.04163078  0.48809604  0.09464344    -0.77700
O119        O  0.04456533  0.99107774  0.90964113    -0.77800
O120        O  0.45813468  0.98798420  0.90671777    -0.77400
O121        O  0.45249062  0.48785566  0.08962708    -0.80900
O122        O  0.49969476  0.06153517  0.05654679    -0.80300
O123        O  0.49780813  0.06135448  0.94899101    -0.78700
Eu124      Eu  0.49738319  0.48904588  0.06519787     2.39800
Eu125      Eu  0.50137814  0.48812337  0.92845008     2.39600
Eu126      Eu  0.05194223  0.49092321  0.00006573     2.38400
Eu127      Eu  0.44669466  0.48630469  0.99465412     2.39900
Eu128      Eu  0.49872800  0.04006412  0.00282966     2.39800
O129        O  0.47332883  0.01403127  0.96810556    -0.93100
O130        O  0.02372173  0.01472673  0.03943909    -0.92000
C131        C  0.49933975  0.05510978  0.08721284     1.02100
C132        C  0.49825447  0.05481338  0.91828711     1.00800
C133        C  0.06572998  0.49006887  0.08467384     1.00200
C134        C  0.42883169  0.48642231  0.07802323     1.02200
C135        C  0.43416534  0.98706158  0.91697748     1.01100
C136        C  0.06827810  0.99167011  0.92122444     1.00000
C137        C  0.06242485  0.05673758  0.00874472     1.00000
C138        C  0.43172723  0.05271870  0.00395638     1.02600
H139        H  0.03560737  0.02743593  0.95829421     0.30000
O140        O  0.02484115  0.01593298  0.97107636    -1.05300
H141        H  0.46144537  0.02449305  0.05001237     0.32100
O142        O  0.47281416  0.01390549  0.03670639    -1.07800
N143        N  0.28956403  0.23618131  0.02252885    -0.36900
N144        N  0.25209239  0.27798393  0.02232816    -0.57400
N145        N  0.20981615  0.24086640  0.01928025    -0.36800
N146        N  0.24747363  0.19913753  0.02242192    -0.57400
C147        C  0.30565452  0.25606219  0.02903565     0.26700
C148        C  0.30310185  0.21455835  0.02874845     0.26700
C149        C  0.19591745  0.26257145  0.02416733     0.26700
C150        C  0.19355578  0.22086672  0.02483090     0.26700
C151        C  0.27437611  0.29142318  0.01739960     0.35400
C152        C  0.23208419  0.29406908  0.01569076     0.35400
C153        C  0.26777966  0.18329021  0.01635436     0.35400
C154        C  0.22558659  0.18562459  0.01566327     0.35400
C155        C  0.32976759  0.24702266  0.03957915    -0.22100
C156        C  0.32815310  0.22073642  0.03939186    -0.22100
C157        C  0.17032674  0.25623138  0.03244288    -0.22100
C158        C  0.16891536  0.22993013  0.03314823    -0.22100
C159        C  0.26853109  0.31633649  0.00833491    -0.23200
C160        C  0.24173418  0.31805358  0.00739021    -0.23200
C161        C  0.25879553  0.15949828  0.00619789    -0.23200
C162        C  0.23200331  0.16097596  0.00573908    -0.23200
C163        C  0.29992843  0.28191986  0.02252573    -0.18500
C164        C  0.29425680  0.18957314  0.02171779    -0.18500
C165        C  0.19984113  0.19474602  0.02007505    -0.18500
C166        C  0.20524465  0.28778838  0.01881443    -0.18500
H167        H  0.34695458  0.25818165  0.04586140     0.14400
H168        H  0.34386892  0.20767860  0.04544357     0.14400
H169        H  0.15413007  0.26910305  0.03694124     0.14400
H170        H  0.15153031  0.21876663  0.03838758     0.14400
H171        H  0.28213819  0.33173593  0.00318030     0.12700
H172        H  0.23070366  0.33509638  0.00142514     0.12700
H173        H  0.27032216  0.14279305  0.99995799     0.12700
H174        H  0.21876374  0.14563274  0.99894022     0.12700
H175        H  0.27194268  0.23724852  0.00988663     0.25900
H176        H  0.22825752  0.23976622  0.00869377     0.25900
C177        C  0.49870929  0.21797713  0.22317644     0.86200
C178        C  0.02010700  0.21946311  0.25047508    -0.54000
C179        C  0.01909207  0.24167540  0.26829176     0.09200
C180        C  0.49718057  0.25955914  0.25947541     0.20100
C181        C  0.47437425  0.22009213  0.24504154    -0.54700
C182        C  0.47293061  0.24192558  0.26355208     0.09300
C183        C  0.49936359  0.24316230  0.20324062    -0.54200
C184        C  0.49848083  0.26491441  0.22213782     0.09800
H185        H  0.03619679  0.20600015  0.25276583     0.14400
H186        H  0.49669835  0.27715548  0.27489954     0.00100
H187        H  0.45934360  0.20535427  0.24552690     0.14700
H188        H  0.50114495  0.24410237  0.17664094     0.14500
C189        C  0.25213067  0.03342559  0.27397906     0.86200
C190        C  0.27472413  0.02877160  0.24945439    -0.54000
C191        C  0.27336073  0.50722570  0.23075736     0.09200
C192        C  0.24861686  0.49136054  0.23880235     0.20100
C193        C  0.22736364  0.03204142  0.25268508    -0.54700
C194        C  0.22522401  0.50925226  0.23142687     0.09300
C195        C  0.25031198  0.51198890  0.29269493    -0.54200
C196        C  0.24893630  0.48875652  0.27685830     0.09800
H197        H  0.29186400  0.04073236  0.24661347     0.14400
H198        H  0.24737521  0.47285825  0.22546422     0.00100
H199        H  0.21281409  0.04720362  0.25229911     0.14700
H200        H  0.25110965  0.51371614  0.31935495     0.14500
C201        C  0.49775255  0.21493741  0.77588924     0.86200
C202        C  0.47472292  0.21582562  0.75170879    -0.54000
C203        C  0.47375300  0.23716581  0.73241500     0.09200
C204        C  0.49682941  0.25586615  0.73858853     0.20100
C205        C  0.02124469  0.21978211  0.75701395    -0.54700
C206        C  0.02183722  0.24069237  0.73665737     0.09300
C207        C  0.49595289  0.24049157  0.79513623    -0.54200
C208        C  0.49547161  0.26187238  0.77569974     0.09800
H209        H  0.45966030  0.20110459  0.75102429     0.14400
H210        H  0.49625272  0.27321068  0.72292034     0.00100
H211        H  0.03730338  0.20623430  0.75853885     0.14700
H212        H  0.49636145  0.24225550  0.82170674     0.14500
C213        C  0.25181290  0.03317436  0.73012633     0.86200
C214        C  0.22778230  0.03040277  0.75237178    -0.54000
C215        C  0.22780915  0.50832553  0.76454408     0.09200
C216        C  0.25121511  0.48977153  0.76042851     0.20100
C217        C  0.27536401  0.03084495  0.75363402    -0.54700
C218        C  0.27575353  0.50635971  0.76703541     0.09300
C219        C  0.25375228  0.50534675  0.70384108    -0.54200
C220        C  0.25199087  0.48394615  0.72314045     0.09800
H221        H  0.21213797  0.04448577  0.75270759     0.14400
H222        H  0.25010543  0.47245320  0.77617592     0.00100
H223        H  0.29180042  0.04393295  0.75413230     0.14700
H224        H  0.25445446  0.50435555  0.67710966     0.14500
C225        C  0.20160161  0.50194861  0.21141517    -0.20100
C226        C  0.20354274  0.49022671  0.18011872     0.36100
C227        C  0.18073789  0.48536346  0.16149668    -0.26100
C228        C  0.15580252  0.49241538  0.17315911     0.02500
C229        C  0.15267813  0.00791770  0.21093654     0.27400
C230        C  0.17588748  0.01053110  0.22934531    -0.25200
N231        N  0.22862750  0.48444021  0.16629075    -0.82600
H232        H  0.18261243  0.47697846  0.13713998     0.13200
C233        C  0.13260940  0.49109532  0.15059172     0.02500
N234        N  0.12789171  0.01521312  0.22489736    -0.81200
H235        H  0.17485160  0.01772641  0.25439223     0.18000
C236        C  0.11022715  0.47666818  0.15897823    -0.26000
C237        C  0.08785432  0.47611910  0.13829793     0.36000
C238        C  0.08769120  0.49074496  0.10900984    -0.20000
C239        C  0.10826329  0.00972155  0.10631665    -0.25300
C240        C  0.12980091  0.01212808  0.12747296     0.27400
H241        H  0.11037279  0.46557912  0.18150882     0.13100
N242        N  0.06572736  0.46030823  0.14650005    -0.82600
H243        H  0.10795551  0.02063351  0.08362446     0.18000
N244        N  0.15097355  0.02919456  0.11936609    -0.81200
H245        H  0.06899161  0.45074398  0.16872793     0.33600
H246        H  0.06408289  0.44617001  0.12829257     0.38100
H247        H  0.14755158  0.03817802  0.09677174     0.33600
H248        H  0.15135535  0.04366482  0.13723774     0.30300
H249        H  0.13029823  0.02162498  0.24914896     0.33600
H250        H  0.12085914  0.03080293  0.21142342     0.30300
H251        H  0.23034983  0.49430065  0.14398685     0.38200
H252        H  0.22919795  0.46482875  0.16108515     0.33600
C253        C  0.40621084  0.48609371  0.10135267    -0.20100
C254        C  0.38265635  0.47303583  0.09341616     0.36100
C255        C  0.36076485  0.47511839  0.11437400    -0.26100
C256        C  0.36157179  0.49015494  0.14307823     0.02500
C257        C  0.38594463  0.00546737  0.15619656     0.27400
C258        C  0.40840126  0.00306024  0.13616320    -0.25200
N259        N  0.38108256  0.45747428  0.06418973    -0.82600
H260        H  0.34297209  0.46477415  0.10837236     0.13200
C261        C  0.33781380  0.49203885  0.16471168     0.02500
N262        N  0.38570504  0.02331623  0.18324044    -0.81200
H263        H  0.42544565  0.01483314  0.14115253     0.18000
C264        C  0.34018425  0.48684322  0.19856953    -0.26000
C265        C  0.31904301  0.49051248  0.22039615     0.36000
C266        C  0.29475742  0.49912458  0.20809090    -0.20000
C267        C  0.29299213  0.00404213  0.17590582    -0.25300
C268        C  0.31519510  0.00128836  0.15553540     0.27400
H269        H  0.35884019  0.48035412  0.20812586     0.13100
N270        N  0.32221113  0.48566933  0.25503640    -0.82600
H271        H  0.27505138  0.01175495  0.16577926     0.18000
N272        N  0.31381001  0.00783278  0.12118227    -0.81200
H273        H  0.34102900  0.47876879  0.25993030     0.33600
H274        H  0.32059283  0.50314734  0.26747696     0.38100
H275        H  0.29484893  0.01359380  0.11490796     0.33600
H276        H  0.32601154  0.02365759  0.11740047     0.30300
H277        H  0.40378191  0.03264732  0.18522385     0.33600
H278        H  0.37184544  0.03741928  0.17784121     0.30300
H279        H  0.39407245  0.44219370  0.06718185     0.38200
H280        H  0.36239123  0.44949875  0.06162444     0.33600
C281        C  0.49923924  0.29092478  0.20719907    -0.20100
C282        C  0.47975869  0.30936060  0.21406174     0.36100
C283        C  0.47932621  0.33240675  0.19606078    -0.26100
C284        C  0.49806796  0.33731307  0.17161564     0.02500
C285        C  0.01128414  0.33128915  0.19828225     0.27400
C286        C  0.01077444  0.30804358  0.21593744    -0.25200
N287        N  0.45991583  0.30422110  0.23826770    -0.82600
H288        H  0.46383974  0.34620240  0.20027431     0.13200
C289        C  0.49539790  0.36015793  0.15032042     0.02500
N290        N  0.02891936  0.35149679  0.20771688    -0.81200
H291        H  0.02399143  0.30529335  0.23650817     0.18000
C292        C  0.99041589  0.38130821  0.15930594    -0.26000
C293        C  0.99153045  0.40258666  0.13799408     0.36000
C294        C  0.49570654  0.40279971  0.10751364    -0.20000
C295        C  0.48554596  0.37904260  0.09718209    -0.25300
C296        C  0.48479074  0.35789708  0.11839144     0.27400
H297        H  0.98359605  0.38374905  0.18441162     0.13100
N298        N  0.98369270  0.42739265  0.14985364    -0.82600
H299        H  0.47798443  0.37693266  0.07235510     0.18000
N300        N  0.47279037  0.33429419  0.10785617    -0.81200
H301        H  0.97904196  0.42667293  0.17493324     0.33600
H302        H  0.96642516  0.43235660  0.13758245     0.38100
H303        H  0.46533984  0.33606075  0.08395399     0.33600
H304        H  0.48721409  0.32017309  0.10675769     0.30300
H305        H  0.03971488  0.34621476  0.22850967     0.33600
H306        H  0.04238126  0.35394797  0.18855653     0.30300
H307        H  0.44854576  0.28904254  0.22943172     0.38200
H308        H  0.44732702  0.31988404  0.24071826     0.33600
C309        C  0.49984532  0.07649783  0.11106841    -0.20100
C310        C  0.47950531  0.08036266  0.13407690     0.36100
C311        C  0.47858661  0.10349529  0.15202544    -0.26100
C312        C  0.49806480  0.12224244  0.14802446     0.02500
C313        C  0.02078091  0.10936392  0.13907372     0.27400
C314        C  0.01949920  0.08784768  0.11823851    -0.25200
N315        N  0.45942061  0.06131622  0.13816693    -0.82600
H316        H  0.46263443  0.10701215  0.16906055     0.13200
C317        C  0.49662015  0.14641553  0.16702795     0.02500
N318        N  0.04515659  0.12273013  0.14379462    -0.81200
H319        H  0.03664995  0.08213124  0.10429903     0.18000
C320        C  0.00090435  0.14307010  0.20770760    -0.26000
C321        C  0.00048544  0.16647267  0.22499082     0.36000
C322        C  0.49851272  0.19284645  0.20343146    -0.20000
C323        C  0.48884490  0.19224975  0.17082442    -0.25300
C324        C  0.48787675  0.16933591  0.15250519     0.27400
H325        H  0.00367618  0.12535958  0.22112259     0.13100
N326        N  0.00268597  0.16627879  0.26019441    -0.82600
H327        H  0.48123176  0.20941941  0.15960247     0.18000
N328        N  0.47715185  0.16910255  0.11969869    -0.81200
H329        H  0.02033974  0.15739162  0.26640990     0.33600
H330        H  0.98736417  0.15518536  0.26962004     0.38100
H331        H  0.47080316  0.18740015  0.11303598     0.33600
H332        H  0.49208562  0.16428143  0.10324515     0.30300
H333        H  0.06016315  0.11379980  0.13053101     0.33600
H334        H  0.04324293  0.14112629  0.13406664     0.30300
H335        H  0.46819902  0.04514845  0.14852146     0.38200
H336        H  0.44539307  0.06756103  0.15515269     0.33600
C337        C  0.09045919  0.40699834  0.00044472    -0.20100
C338        C  0.11673826  0.41199006  0.99137607     0.36100
C339        C  0.13548901  0.39248311  0.99466962    -0.26100
C340        C  0.12848169  0.36823217  0.00658924     0.02500
C341        C  0.10236002  0.36322948  0.01560388     0.27400
C342        C  0.08365065  0.38260413  0.01236498    -0.25200
N343        N  0.12429609  0.43660442  0.97865901    -0.82600
H344        H  0.15568886  0.39614025  0.98792210     0.13200
C345        C  0.14864490  0.34810029  0.00946226     0.02500
N346        N  0.09497909  0.33849378  0.02810756    -0.81200
H347        H  0.06364239  0.37864833  0.01970384     0.18000
C348        C  0.15436893  0.33799171  0.04063154    -0.26000
C349        C  0.17306248  0.31854968  0.04430358     0.36000
C350        C  0.18579880  0.30878345  0.01615184    -0.20000
C351        C  0.18010628  0.31890273  0.98497712    -0.25300
C352        C  0.16169713  0.33862841  0.98134821     0.27400
H353        H  0.14429977  0.34544048  0.06212641     0.13100
N354        N  0.17895252  0.30838684  0.07634273    -0.82600
H355        H  0.19007056  0.31130397  0.96349252     0.18000
N356        N  0.15598478  0.34891070  0.94930223    -0.81200
H357        H  0.16745786  0.31725454  0.09438286     0.33600
H358        H  0.19843375  0.31299291  0.08169021     0.38100
H359        H  0.16742276  0.33995843  0.93127359     0.33600
H360        H  0.13646942  0.34452638  0.94382936     0.30300
H361        H  0.07501561  0.33802345  0.03386359     0.33600
H362        H  0.09787989  0.32510666  0.00925155     0.30300
H363        H  0.11484159  0.43903018  0.95601567     0.38200
H364        H  0.14440633  0.43713299  0.97380322     0.33600
C365        C  0.32207204  0.30001843  0.01982709    -0.20100
C366        C  0.33065895  0.31491416  0.04689180     0.36100
C367        C  0.34969654  0.33374958  0.04173046    -0.26100
C368        C  0.36037923  0.33782598  0.01033854     0.02500
C369        C  0.35268190  0.32219242  0.98367573     0.27400
C370        C  0.33357286  0.30331067  0.98875388    -0.25200
N371        N  0.32066484  0.31142130  0.07972031    -0.82600
H372        H  0.35608786  0.34547261  0.06232112     0.13200
C373        C  0.37923680  0.35893501  0.00573793     0.02500
N374        N  0.36382638  0.32600219  0.95150900    -0.81200
H375        H  0.32697573  0.29161365  0.96824183     0.18000
C376        C  0.40502327  0.35326866  0.99678186    -0.26000
C377        C  0.42372359  0.37277413  0.99314887     0.36000
C378        C  0.41637483  0.39863538  0.99898716    -0.20000
C379        C  0.39018420  0.40413408  0.00704656    -0.27900
C380        C  0.37156705  0.38454953  0.01049378     0.27400
H381        H  0.41058309  0.33346834  0.99283481     0.13100
N382        N  0.44999418  0.36627632  0.98342743    -0.82600
H383        H  0.38416037  0.42376878  0.01091727     0.18000
N384        N  0.34487147  0.39049751  0.01879980    -0.81200
H385        H  0.45315059  0.37401266  0.96000768     0.33600
H386        H  0.45212194  0.34644586  0.98097240     0.38100
H387        H  0.34244606  0.41025628  0.02170725     0.33600
H388        H  0.33314703  0.38501496  0.99884563     0.30300
H389        H  0.35610896  0.31279016  0.93467967     0.33600
H390        H  0.35813624  0.34415107  0.94339854     0.30300
H391        H  0.30726650  0.29634001  0.08094691     0.38200
H392        H  0.31055206  0.32806990  0.08625452     0.33600
C393        C  0.41113312  0.07256153  0.00695116    -0.20100
C394        C  0.41553114  0.09533706  0.02524983     0.36100
C395        C  0.39549308  0.11357460  0.02777104    -0.26100
C396        C  0.37129352  0.10962967  0.01242291     0.02500
C397        C  0.36677528  0.08710983  0.99410493     0.27400
C398        C  0.38670120  0.06864566  0.99174487    -0.25200
N399        N  0.44015106  0.09976624  0.04158578    -0.82600
H400        H  0.39874263  0.13105278  0.04168126     0.13200
C401        C  0.35108750  0.12967338  0.01513259     0.02500
N402        N  0.34202857  0.08322762  0.97790406    -0.81200
H403        H  0.38327492  0.05130289  0.97764540     0.18000
C404        C  0.34442941  0.14371953  0.98697583    -0.26000
C405        C  0.32597750  0.16351825  0.98874069     0.36000
C406        C  0.31391906  0.16898620  0.01914626    -0.20000
C407        C  0.32034468  0.15485488  0.04726611    -0.25300
C408        C  0.33900283  0.13520522  0.04558952     0.27400
H409        H  0.35392686  0.13939050  0.96373113     0.13100
N410        N  0.31916665  0.17793984  0.95985175    -0.82600
H411        H  0.31082249  0.15927778  0.07046692     0.18000
N412        N  0.34577244  0.12085623  0.07454427    -0.81200
H413        H  0.32948249  0.17118593  0.93933759     0.33600
H414        H  0.32526385  0.19684313  0.96368185     0.38100
H415        H  0.33516135  0.12742409  0.09492661     0.33600
H416        H  0.34002627  0.10186904  0.07056047     0.30300
H417        H  0.34191997  0.06580515  0.96513657     0.33600
H418        H  0.32763257  0.08187821  0.99615284     0.30300
H419        H  0.44204031  0.08601844  0.06012521     0.38200
H420        H  0.44028227  0.11762003  0.05333654     0.33600
C421        C  0.08196265  0.07782519  0.01060129    -0.20100
C422        C  0.07470818  0.10342926  0.01778371     0.36100
C423        C  0.09383943  0.12268405  0.01826272    -0.26100
C424        C  0.12016519  0.11687044  0.01251566     0.02500
C425        C  0.12773322  0.09145650  0.00610403     0.27400
C426        C  0.10857863  0.07219126  0.00513845    -0.25200
N427        N  0.04815198  0.10999791  0.02545625    -0.82600
H428        H  0.08818916  0.14223759  0.02378753     0.13200
C429        C  0.13982980  0.13746164  0.01457278     0.02500
N430        N  0.15485817  0.08537525  0.00068703    -0.81200
H431        H  0.11457028  0.05271248  0.99992056     0.18000
C432        C  0.15668371  0.13817762  0.04179154    -0.26000
C433        C  0.17593547  0.15722468  0.04453118     0.36000
C434        C  0.17830926  0.17568922  0.01941833    -0.20000
C435        C  0.16128112  0.17510307  0.99231267    -0.25300
C436        C  0.14199341  0.15603284  0.98959951     0.27400
H437        H  0.15480320  0.12376890  0.06083153     0.13100
N438        N  0.19345158  0.15768052  0.07227544    -0.82600
H439        H  0.16347970  0.18922894  0.97298189     0.18000
N440        N  0.12485209  0.15517742  0.96150001    -0.81200
H441        H  0.18930294  0.14257076  0.08832100     0.33600
H442        H  0.18994723  0.17461227  0.08535694     0.38100
H443        H  0.12904604  0.17023690  0.94539106     0.33600
H444        H  0.12876952  0.13822999  0.94863084     0.30300
H445        H  0.15721536  0.06571546  0.99671593     0.33600
H446        H  0.16071929  0.09450164  0.97899115     0.30300
H447        H  0.04195535  0.12393042  0.00873501     0.38200
H448        H  0.04776804  0.11805488  0.04908794     0.33600
C449        C  0.41314475  0.48190737  0.88493284    -0.20100
C450        C  0.39036346  0.97104449  0.89809492     0.36100
C451        C  0.36818590  0.97401630  0.87805021    -0.26100
C452        C  0.36868228  0.48633915  0.84410638     0.02500
C453        C  0.39158198  0.50041299  0.83682283     0.27400
C454        C  0.41374741  0.49788324  0.85719181    -0.25200
N455        N  0.39024145  0.95261945  0.92440707    -0.82600
H456        H  0.35078482  0.96273370  0.88292699     0.13200
C457        C  0.34397768  0.49064331  0.82573599     0.02500
N458        N  0.39188757  0.51775024  0.80936451    -0.81200
H459        H  0.43095220  0.50950195  0.85251569     0.18000
C460        C  0.33096622  0.01961950  0.83411490    -0.26000
C461        C  0.30781443  0.02404095  0.81626804     0.36000
C462        C  0.29726433  0.50032180  0.79060023    -0.20000
C463        C  0.30848953  0.47583715  0.79046331    -0.25300
C464        C  0.33200085  0.47088736  0.80738031     0.27400
H465        H  0.33941920  0.03489245  0.84883700     0.13100
N466        N  0.29510607  0.04856055  0.81823764    -0.82600
H467        H  0.29954241  0.46080075  0.77612569     0.18000
N468        N  0.34413628  0.44610811  0.80535271    -0.81200
H469        H  0.30543724  0.06094451  0.83383844     0.33600
H470        H  0.27672481  0.04571014  0.82900685     0.38100
H471        H  0.33298591  0.43377079  0.79060242     0.33600
H472        H  0.36215518  0.44840247  0.79345536     0.30300
H473        H  0.41016983  0.52667365  0.80736672     0.33600
H474        H  0.38934408  0.50688259  0.78791320     0.30300
H475        H  0.37234144  0.94288955  0.92530841     0.38200
H476        H  0.40456308  0.93892194  0.91907749     0.33600
C477        C  0.09297752  0.49364585  0.89369390    -0.20100
C478        C  0.11744503  0.50379420  0.90423272     0.36100
C479        C  0.13895199  0.50373858  0.88263662    -0.26100
C480        C  0.13514251  0.99553924  0.85483246     0.02500
C481        C  0.11062643  0.98662182  0.84320530     0.27400
C482        C  0.08896717  0.98546964  0.86501572    -0.25200
N483        N  0.12029695  0.51497673  0.93649036    -0.82600
H484        H  0.15762517  0.51115142  0.89111108     0.13200
C485        C  0.15861355  0.99864466  0.83296764     0.02500
N486        N  0.10771568  0.97909235  0.80930004    -0.81200
H487        H  0.07032280  0.97833470  0.85610171     0.18000
C488        C  0.16975661  0.47749366  0.80966489    -0.26000
C489        C  0.19184174  0.48021043  0.78902431     0.36000
C490        C  0.20473737  0.50409188  0.78671641    -0.20000
C491        C  0.19480086  0.02470602  0.81252512    -0.25300
C492        C  0.17174649  0.02247104  0.83121002     0.27400
H493        H  0.16040419  0.45892460  0.81173514     0.13100
N494        N  0.20036246  0.45893875  0.76946204    -0.82600
H495        H  0.20474555  0.04304047  0.81159944     0.18000
N496        N  0.16135963  0.04450234  0.84807051    -0.81200
H497        H  0.18472226  0.45316431  0.75453698     0.33600
H498        H  0.20485153  0.44382369  0.78531863     0.38100
H499        H  0.17335395  0.06050634  0.84447936     0.33600
H500        H  0.14325350  0.04879017  0.83739386     0.30300
H501        H  0.08853204  0.97302599  0.80466511     0.33600
H502        H  0.11083545  0.99533828  0.79480062     0.30300
H503        H  0.10853944  0.53135133  0.93715932     0.38200
H504        H  0.13952301  0.52120103  0.94046575     0.33600
C505        C  0.49891260  0.07608201  0.89408642    -0.20100
C506        C  0.01278064  0.10091528  0.90569306     0.36100
C507        C  0.01164949  0.12211319  0.88454713    -0.26100
C508        C  0.49760070  0.11906012  0.85162896     0.02500
C509        C  0.48095327  0.09788053  0.84557162     0.27400
C510        C  0.48194642  0.07640206  0.86675287    -0.25200
N511        N  0.02937922  0.10198912  0.93416286    -0.82600
H512        H  0.02337790  0.13887486  0.89025717     0.13200
C513        C  0.49611736  0.14315753  0.83208935     0.02500
N514        N  0.46271750  0.09856749  0.81858927    -0.81200
H515        H  0.46881028  0.06037327  0.86269792     0.18000
C516        C  0.50175818  0.14306974  0.79830093    -0.26000
C517        C  0.50204556  0.16598054  0.78008540     0.36000
C518        C  0.49756929  0.18986720  0.79590927    -0.20000
C519        C  0.98860494  0.19233869  0.83192159    -0.25300
C520        C  0.98766489  0.16977008  0.85084126     0.27400
H521        H  0.50610381  0.12513031  0.78598159     0.13100
N522        N  0.50666187  0.16484931  0.74527837    -0.82600
H523        H  0.98329307  0.20987849  0.84412816     0.18000
N524        N  0.97989992  0.17083478  0.88491042    -0.81200
H525        H  0.49218375  0.15328517  0.73466927     0.33600
H526        H  0.52479802  0.15608627  0.74134817     0.38100
H527        H  0.97602563  0.18967841  0.89217758     0.33600
H528        H  0.96227567  0.16074442  0.88711635     0.30300
H529        H  0.45181190  0.08161144  0.81762389     0.33600
H530        H  0.44942288  0.11335578  0.82324548     0.30300
H531        H  0.02352532  0.11757245  0.94862348     0.38200
H532        H  0.04856888  0.10538516  0.92627336     0.33600
C533        C  0.50054978  0.40120595  0.88800305    -0.20100
C534        C  0.47901622  0.39813459  0.86648014     0.36100
C535        C  0.47809717  0.37672706  0.84533763    -0.26100
C536        C  0.49829819  0.35855424  0.84522024     0.02500
C537        C  0.01030326  0.35709431  0.87536844     0.27400
C538        C  0.01300292  0.37858216  0.89590352    -0.25200
N539        N  0.45757240  0.41594712  0.86743344    -0.82600
H540        H  0.46135467  0.37388373  0.82930421     0.13200
C541        C  0.49557064  0.33507081  0.82486144     0.02500
N542        N  0.02286841  0.33332097  0.88372190    -0.81200
H543        H  0.02412064  0.37683399  0.91854604     0.18000
C544        C  0.00950731  0.33277465  0.79844868    -0.26000
C545        C  0.00972580  0.30956649  0.78075722     0.36000
C546        C  0.49445262  0.28812371  0.79012488    -0.20000
C547        C  0.47686088  0.29282102  0.81605797    -0.25300
C548        C  0.47721943  0.31607678  0.83348535     0.27400
H549        H  0.02387287  0.34746461  0.79296269     0.13100
N550        N  0.02867715  0.30550017  0.75509024    -0.82600
H551        H  0.46313509  0.27799351  0.82322559     0.18000
N552        N  0.45941636  0.32030330  0.86041268    -0.81200
H553        H  0.03985333  0.32203696  0.75131140     0.33600
H554        H  0.04162975  0.29137462  0.76318525     0.38100
H555        H  0.44694869  0.30456709  0.86335936     0.33600
H556        H  0.47051149  0.32170680  0.88200947     0.30300
H557        H  0.03356261  0.33525185  0.90557709     0.33600
H558        H  0.00831536  0.31972618  0.88839908     0.30300
H559        H  0.46447025  0.43354329  0.85878218     0.38200
H560        H  0.44273875  0.41021761  0.85121156     0.33600
C561        C  0.33825841  0.25714548  0.60687338    -0.20100
C562        C  0.36378675  0.26512326  0.59719477     0.36100
C563        C  0.38495445  0.26223536  0.61906713    -0.26100
C564        C  0.38137581  0.25218879  0.65066266     0.02500
C565        C  0.35592199  0.24536882  0.66107689     0.27400
C566        C  0.33461567  0.24802103  0.63914532    -0.25200
N567        N  0.36823689  0.27626740  0.56526812    -0.82600
H568        H  0.40450190  0.26772851  0.61137751     0.13200
C569        C  0.40481666  0.24822365  0.67187540     0.02500
N570        N  0.35181543  0.23568164  0.69379814    -0.81200
H571        H  0.31523976  0.24213334  0.64697445     0.18000
C572        C  0.41436930  0.26839530  0.69145128    -0.26000
C573        C  0.43724268  0.26548973  0.71054403     0.36000
C574        C  0.45090403  0.24200688  0.71019324    -0.20000
C575        C  0.44137928  0.22195223  0.69025721    -0.25300
C576        C  0.41869880  0.22491547  0.67085484     0.27400
H577        H  0.40400228  0.28648793  0.69191960     0.13100
N578        N  0.44603012  0.28619101  0.73097378    -0.82600
H579        H  0.45180209  0.20389470  0.68970100     0.18000
N580        N  0.41009481  0.20460263  0.64940792    -0.81200
H581        H  0.43090712  0.29100197  0.74721275     0.33600
H582        H  0.44964922  0.30199011  0.71585696     0.38100
H583        H  0.42286810  0.18901050  0.65076641     0.33600
H584        H  0.39193816  0.19814669  0.65791210     0.30300
H585        H  0.33190773  0.23217923  0.69788672     0.33600
H586        H  0.36123987  0.21798405  0.69546677     0.30300
H587        H  0.35805191  0.29361657  0.56448648     0.38200
H588        H  0.38803626  0.28075854  0.56199010     0.33600
C589        C  0.04492079  0.24646823  0.71509010    -0.20100
C590        C  0.04200920  0.25531018  0.68246762     0.36100
C591        C  0.06424820  0.25887313  0.66246062    -0.26100
C592        C  0.08958577  0.25305125  0.67388813     0.02500
C593        C  0.09256007  0.24439002  0.70665969     0.27400
C594        C  0.07034424  0.24166476  0.72695213    -0.25200
N595        N  0.01649660  0.25965416  0.66894575    -0.82600
H596        H  0.06161115  0.26572733  0.63749585     0.13200
C597        C  0.11257636  0.25516937  0.65097348     0.02500
N598        N  0.11802995  0.23762894  0.71896780    -0.81200
H599        H  0.07290698  0.23522945  0.75210217     0.18000
C600        C  0.13513878  0.26884519  0.66058604    -0.26000
C601        C  0.15742354  0.27042621  0.63997323     0.36000
C602        C  0.15673484  0.25905735  0.60825410    -0.20000
C603        C  0.13396381  0.24579933  0.59857607    -0.25300
C604        C  0.11229726  0.24317272  0.61972212     0.27400
H605        H  0.13542725  0.27822936  0.68443426     0.13100
N606        N  0.18031183  0.28408542  0.65091007    -0.82600
H607        H  0.13335039  0.23666443  0.57456335     0.18000
N608        N  0.09025206  0.22778442  0.60982171    -0.81200
H609        H  0.17694248  0.29261654  0.67387364     0.33600
H610        H  0.19512244  0.27061285  0.65468890     0.38100
H611        H  0.09305230  0.22035334  0.58612093     0.33600
H612        H  0.08928892  0.21209492  0.62574454     0.30300
H613        H  0.11687928  0.23171513  0.74353236     0.33600
H614        H  0.12458646  0.22184024  0.70539432     0.30300
H615        H  0.01556968  0.27868139  0.66106917     0.38200
H616        H  0.01419335  0.24780848  0.64832430     0.33600
C617        C  0.24280877  0.16887767  0.60569179    -0.20100
C618        C  0.23863470  0.17149366  0.64009651     0.36100
C619        C  0.23919010  0.14957054  0.66040438    -0.26100
C620        C  0.24370784  0.12503581  0.64729961     0.02500
C621        C  0.24730951  0.12226117  0.61305591     0.27400
C622        C  0.24668870  0.14402355  0.59275793    -0.25200
N623        N  0.23373420  0.19622387  0.65443592    -0.82600
H624        H  0.23600935  0.15159246  0.68669084     0.13200
C625        C  0.24532423  0.10241088  0.66960806     0.02500
N626        N  0.25206697  0.09735415  0.59903875    -0.81200
H627        H  0.24979275  0.14142957  0.56656219     0.18000
C628        C  0.22849014  0.08150361  0.66466198    -0.26000
C629        C  0.23032657  0.05938415  0.68414133     0.36000
C630        C  0.24987473  0.05745584  0.70883527    -0.20000
C631        C  0.26591124  0.07909104  0.71461485    -0.25300
C632        C  0.26392475  0.10133851  0.69524719     0.27400
H633        H  0.21367186  0.08239778  0.64556824     0.13100
N634        N  0.21201715  0.03893078  0.67891888    -0.82600
H635        H  0.27979740  0.07936560  0.73457791     0.18000
N636        N  0.28087060  0.12285420  0.70144738    -0.81200
H637        H  0.21366984  0.03280399  0.65444804     0.33600
H638        H  0.19311977  0.04614368  0.68236290     0.38100
H639        H  0.29321317  0.11925961  0.72146989     0.33600
H640        H  0.29294914  0.12509642  0.68084461     0.30300
H641        H  0.25413834  0.09851418  0.57344679     0.33600
H642        H  0.26998061  0.09082163  0.60823074     0.30300
H643        H  0.21564200  0.20254883  0.64555781     0.38200
H644        H  0.23181619  0.19482912  0.68003061     0.33600
C645        C  0.25159710  0.34450410  0.61178531    -0.20100
C646        C  0.26948339  0.36504083  0.60865793     0.36100
C647        C  0.26848911  0.38549253  0.63118931    -0.26100
C648        C  0.24977031  0.38613320  0.65646059     0.02500
C649        C  0.23192299  0.36564574  0.65975789     0.27400
C650        C  0.23323526  0.34481614  0.63759616    -0.25200
N651        N  0.28842358  0.36516679  0.58240071    -0.82600
H652        H  0.28200677  0.40139199  0.62859982     0.13200
C653        C  0.24856090  0.40927884  0.67778454     0.02500
N654        N  0.21234981  0.36629907  0.68519657    -0.81200
H655        H  0.21930333  0.32922438  0.63972203     0.18000
C656        C  0.22780311  0.42658007  0.67385913    -0.26000
C657        C  0.22836516  0.45072483  0.68925648     0.36000
C658        C  0.24993729  0.45775730  0.70893987    -0.20000
C659        C  0.27017996  0.44006283  0.71389718    -0.25300
C660        C  0.26956876  0.41574465  0.69882264     0.27400
H661        H  0.21160474  0.42172819  0.65772937     0.13100
N662        N  0.20719052  0.46827976  0.68447093    -0.82600
H663        H  0.28699453  0.44552167  0.72837564     0.18000
N664        N  0.29041712  0.39775216  0.70416016    -0.81200
H665        H  0.18993423  0.45940890  0.69236238     0.33600
H666        H  0.20546656  0.47178893  0.65920628     0.38100
H667        H  0.30443410  0.40545095  0.72018515     0.33600
H668        H  0.28237441  0.38184090  0.71608037     0.30300
H669        H  0.20045527  0.34999833  0.68392616     0.33600
H670        H  0.22204941  0.36561064  0.70787556     0.30300
H671        H  0.29977987  0.38184376  0.58318968     0.38200
H672        H  0.30120882  0.34984540  0.58628548     0.33600
C673        C  0.32929351  0.16952436  0.49812860    -0.20100
C674        C  0.32242415  0.14454151  0.50854985     0.36100
C675        C  0.34126947  0.12505243  0.50825122    -0.26100
C676        C  0.36692872  0.13000426  0.49802431     0.02500
C677        C  0.37418561  0.15489507  0.48841182     0.27400
C678        C  0.35529931  0.17440737  0.48851245    -0.25200
N679        N  0.29668598  0.13901263  0.52071164    -0.82600
H680        H  0.33590779  0.10597856  0.51632725     0.13200
C681        C  0.38632395  0.10911364  0.49836628     0.02500
N682        N  0.40073329  0.16021167  0.47873477    -0.81200
H683        H  0.36102746  0.19352913  0.48124733     0.18000
C684        C  0.39235028  0.09639601  0.46888619    -0.26000
C685        C  0.41141812  0.07715227  0.46800396     0.36000
C686        C  0.42519440  0.07106303  0.49724629    -0.20000
C687        C  0.41869117  0.08342442  0.52686565    -0.25300
C688        C  0.39910454  0.10225159  0.52777406     0.27400
H689        H  0.38213978  0.10148450  0.44641357     0.13100
N690        N  0.41616346  0.06425174  0.43720330    -0.82600
H691        H  0.42916665  0.07852200  0.54920609     0.18000
N692        N  0.39214007  0.11450213  0.55831231    -0.81200
H693        H  0.42406015  0.07764931  0.42086524     0.33600
H694        H  0.42989734  0.04959581  0.43958877     0.38100
H695        H  0.40307571  0.10694760  0.57777584     0.33600
H696        H  0.39726026  0.13384156  0.55648946     0.30300
H697        H  0.40282020  0.17944107  0.47207592     0.33600
H698        H  0.41266348  0.15741430  0.49936184     0.30300
H699        H  0.28890592  0.12389197  0.50685654     0.38200
H700        H  0.29840879  0.13292589  0.54514932     0.33600
C701        C  0.15521707  0.17825950  0.49942101    -0.20100
C702        C  0.12964002  0.18304321  0.48731248     0.36100
C703        C  0.11107144  0.16313707  0.48736677    -0.26100
C704        C  0.11770584  0.13867051  0.49855984     0.02500
C705        C  0.14302806  0.13375860  0.51047413     0.27400
C706        C  0.16144828  0.15364816  0.51107484    -0.25200
N707        N  0.12272700  0.20772770  0.47432264    -0.82600
H708        H  0.09144149  0.16654106  0.47820162     0.13200
C709        C  0.09782453  0.11829293  0.49804178     0.02500
N710        N  0.15004496  0.10846632  0.52129152    -0.81200
H711        H  0.18087228  0.14980594  0.52060134     0.18000
C712        C  0.09564289  0.10255017  0.47015493    -0.26000
C713        C  0.07728423  0.08264684  0.46909496     0.36000
C714        C  0.06100480  0.07850560  0.49679753    -0.20000
C715        C  0.06301178  0.09447208  0.52448080    -0.25300
C716        C  0.08131692  0.11445850  0.52534940     0.27400
H717        H  0.10827656  0.10580407  0.44909718     0.13100
N718        N  0.07543793  0.06747656  0.43950640    -0.82600
H719        H  0.05026610  0.09122405  0.54543128     0.18000
N720        N  0.08301620  0.13111556  0.55355329    -0.81200
H721        H  0.09316645  0.05772886  0.43665339     0.33600
H722        H  0.06080711  0.05355752  0.44110647     0.38100
H723        H  0.06905299  0.12601193  0.57121914     0.33600
H724        H  0.10133864  0.12837719  0.56446232     0.30300
H725        H  0.16963461  0.10797184  0.52879171     0.33600
H726        H  0.13881869  0.10417962  0.54210112     0.30300
H727        H  0.13390483  0.21067949  0.45306372     0.38200
H728        H  0.10311701  0.20796115  0.46686478     0.33600
C729        C  0.07000447  0.44620884  0.49939669    -0.20100
C730        C  0.08158194  0.43798437  0.46988109     0.36100
C731        C  0.10096174  0.41922896  0.47077139    -0.26100
C732        C  0.10896222  0.40869436  0.50082597     0.02500
C733        C  0.09780153  0.41746803  0.53077457     0.27400
C734        C  0.07817983  0.43606998  0.52959781    -0.25200
N735        N  0.07324804  0.44837170  0.43898950    -0.82600
H736        H  0.10947662  0.41249393  0.44785326     0.13200
C737        C  0.12819761  0.38791461  0.49968863     0.02500
N738        N  0.10617668  0.40847830  0.56256039    -0.81200
H739        H  0.06926390  0.44271375  0.55230914     0.18000
C740        C  0.15347973  0.39305930  0.48812193    -0.26000
C741        C  0.17208689  0.37346046  0.48570292     0.36000
C742        C  0.16532896  0.34854672  0.49649798    -0.20000
C743        C  0.13960131  0.34341714  0.50684129    -0.25300
C744        C  0.12091915  0.36282686  0.50796514     0.27400
H745        H  0.15852133  0.41235215  0.48059433     0.13100
N746        N  0.19744721  0.37865688  0.47173768    -0.82600
H747        H  0.13391890  0.32430962  0.51441565     0.18000
N748        N  0.09447459  0.35702168  0.51713430    -0.81200
H749        H  0.19908442  0.39793870  0.46512073     0.33600
H750        H  0.19894574  0.36809247  0.44987223     0.38100
H751        H  0.08725266  0.34331280  0.50061448     0.33600
H752        H  0.09472673  0.34885326  0.54063287     0.30300
H753        H  0.09054758  0.39845600  0.57309955     0.33600
H754        H  0.12188746  0.39580148  0.56079654     0.30300
H755        H  0.08958159  0.45641430  0.42739470     0.38200
H756        H  0.06646237  0.43327001  0.42429501     0.33600
C757        C  0.33840786  0.34130164  0.50221592    -0.20100
C758        C  0.36508101  0.33474730  0.49695825     0.36100
C759        C  0.38419447  0.35410942  0.49715271    -0.26100
C760        C  0.37730340  0.37973720  0.50190672     0.02500
C761        C  0.35107536  0.38643810  0.50764538     0.27400
C762        C  0.33187205  0.36721527  0.50765426    -0.25200
N763        N  0.37278685  0.30868186  0.49086475    -0.82600
H764        H  0.40454631  0.34932189  0.49271481     0.13200
C765        C  0.39768069  0.39958590  0.49959245     0.02500
N766        N  0.34413268  0.41277295  0.51332159    -0.81200
H767        H  0.31168788  0.37263136  0.51196545     0.18000
C768        C  0.39859268  0.41500675  0.47141311    -0.26000
C769        C  0.41740278  0.43431631  0.46826975     0.36000
C770        C  0.43545816  0.43831339  0.49423378    -0.20000
C771        C  0.43474861  0.42262781  0.52219853    -0.25300
C772        C  0.41596660  0.40319095  0.52513218     0.27400
H773        H  0.38461307  0.41190842  0.45167591     0.13100
N774        N  0.41778827  0.44910157  0.43840384    -0.82600
H775        H  0.44862242  0.42593599  0.54199530     0.18000
N776        N  0.41514720  0.38729127  0.55397716    -0.81200
H777        H  0.40049400  0.45977620  0.43759227     0.33600
H778        H  0.43330451  0.46212846  0.43797422     0.38100
H779        H  0.43015271  0.39233391  0.57031418     0.33600
H780        H  0.39749563  0.39099310  0.56614622     0.30300
H781        H  0.32394847  0.41454765  0.51704008     0.33600
H782        H  0.35314669  0.41859362  0.53525284     0.30300
H783        H  0.36544904  0.30346667  0.46772724     0.38200
H784        H  0.39316815  0.30716658  0.48924921     0.33600
C785        C  0.15644977  0.26253035  0.39070203    -0.20100
C786        C  0.15793101  0.25299760  0.35796572     0.36100
C787        C  0.13488437  0.25138434  0.33859154    -0.26100
C788        C  0.11046722  0.25959722  0.35075354     0.02500
C789        C  0.10924577  0.27028172  0.38261916     0.27400
C790        C  0.13198644  0.27139954  0.40219154    -0.25200
N791        N  0.18246434  0.24426517  0.34472815    -0.82600
H792        H  0.13588555  0.24338711  0.31394754     0.13200
C793        C  0.08621926  0.25665981  0.33021623     0.02500
N794        N  0.08483320  0.28007916  0.39498324    -0.81200
H795        H  0.13047567  0.27932149  0.42682516     0.18000
C796        C  0.06540972  0.24137756  0.34169709    -0.26000
C797        C  0.04282252  0.23732608  0.32240549     0.36000
C798        C  0.04065122  0.24887388  0.29123838    -0.20000
C799        C  0.06096417  0.26480118  0.28012592    -0.25300
C800        C  0.08367422  0.26890657  0.29935710     0.27400
H801        H  0.06698411  0.23203489  0.36543468     0.13100
N802        N  0.02226263  0.22107449  0.33422489    -0.82600
H803        H  0.05941557  0.27346023  0.25596715     0.18000
N804        N  0.10422125  0.28537356  0.28764911    -0.81200
H805        H  0.01552656  0.22859383  0.35657891     0.33600
H806        H  0.03020628  0.20299474  0.33884764     0.38100
H807        H  0.09939767  0.29287873  0.26456934     0.33600
H808        H  0.10550947  0.30092689  0.30386931     0.30300
H809        H  0.08715641  0.28735474  0.41884752     0.33600
H810        H  0.07947367  0.29553834  0.38011625     0.30300
H811        H  0.19440050  0.26036597  0.34159698     0.38200
H812        H  0.17980410  0.23642627  0.32121067     0.33600
C813        C  0.33785073  0.25603996  0.39130213    -0.20100
C814        C  0.36050850  0.24140204  0.39851451     0.36100
C815        C  0.38221105  0.24214017  0.37719563    -0.26100
C816        C  0.38218479  0.25717487  0.34865157     0.02500
C817        C  0.35957842  0.27170803  0.34113423     0.27400
C818        C  0.33754465  0.27073902  0.36229624    -0.25200
N819        N  0.36132911  0.22545804  0.42732779    -0.82600
H820        H  0.39921435  0.23049197  0.38262245     0.13200
C821        C  0.40548329  0.25606235  0.32619999     0.02500
N822        N  0.35929822  0.28778711  0.31243948    -0.81200
H823        H  0.32043530  0.28218626  0.35671994     0.18000
C824        C  0.40204734  0.24788759  0.29353650    -0.26000
C825        C  0.42357549  0.24376813  0.27248205     0.36000
C826        C  0.44941247  0.24798790  0.28425657    -0.20000
C827        C  0.45282865  0.25700066  0.31659641    -0.25300
C828        C  0.43120682  0.26085229  0.33776534     0.27400
H829        H  0.38242527  0.24389394  0.28470444     0.13100
N830        N  0.41919428  0.23500524  0.23928281    -0.82600
H831        H  0.47250527  0.26018621  0.32576307     0.18000
N832        N  0.43529046  0.26917093  0.37117782    -0.81200
H833        H  0.39919624  0.23243871  0.23474567     0.33600
H834        H  0.42560453  0.24933507  0.22326717     0.38100
H835        H  0.45527222  0.27151762  0.37599746     0.33600
H836        H  0.42667091  0.28721524  0.37373100     0.30300
H837        H  0.34132516  0.29722370  0.31037748     0.33600
H838        H  0.37353745  0.30197411  0.31582707     0.30300
H839        H  0.34727796  0.21105272  0.42425919     0.38200
H840        H  0.37945570  0.21629375  0.42934680     0.33600
C841        C  0.25073602  0.35047547  0.39557289    -0.20100
C842        C  0.26155664  0.37429133  0.40589271     0.36100
C843        C  0.25941188  0.39593227  0.38545254    -0.26100
C844        C  0.24753012  0.39445762  0.35436416     0.02500
C845        C  0.23793013  0.37054563  0.34323210     0.27400
C846        C  0.23956996  0.34884532  0.36392386    -0.25200
N847        N  0.27505172  0.37643907  0.43693701    -0.82600
H848        H  0.26745904  0.41409727  0.39361093     0.13200
C849        C  0.24615252  0.41807172  0.33357406     0.02500
N850        N  0.22618616  0.36849458  0.31114415    -0.81200
H851        H  0.23144701  0.33076554  0.35561463     0.18000
C852        C  0.25975069  0.41897591  0.30353854    -0.26000
C853        C  0.26083881  0.44157262  0.28466139     0.36000
C854        C  0.24758140  0.46384296  0.29539706    -0.20000
C855        C  0.23345388  0.46266585  0.32521555    -0.25300
C856        C  0.23276797  0.44019764  0.34444708     0.27400
H857        H  0.27045362  0.40225155  0.29523837     0.13100
N858        N  0.27654140  0.44199867  0.25545770    -0.82600
H859        H  0.22282779  0.47938415  0.33364673     0.18000
N860        N  0.21862746  0.43980019  0.37509059    -0.81200
H861        H  0.29572152  0.43716512  0.26195311     0.33600
H862        H  0.26948544  0.42787471  0.23942091     0.38100
H863        H  0.21039673  0.45773414  0.38002157     0.33600
H864        H  0.20304840  0.42694002  0.37239872     0.30300
H865        H  0.22032330  0.34963284  0.30646713     0.33600
H866        H  0.20918361  0.37962684  0.31126675     0.30300
H867        H  0.29174679  0.36489867  0.43561566     0.38200
H868        H  0.28166369  0.39516603  0.44086992     0.33600
C869        C  0.25276542  0.05820395  0.29473792    -0.20100
C870        C  0.23243713  0.06333873  0.31768173     0.36100
C871        C  0.23169893  0.08678067  0.33475424    -0.26100
C872        C  0.25109859  0.10535594  0.32999247     0.02500
C873        C  0.27176298  0.10039696  0.30801375     0.27400
C874        C  0.27238098  0.07708215  0.29057171    -0.25200
N875        N  0.21236478  0.04472091  0.32373582    -0.82600
H876        H  0.21605298  0.09035114  0.35222626     0.13200
C877        C  0.25067172  0.12914467  0.35001463     0.02500
N878        N  0.29211780  0.11914803  0.30355417    -0.81200
H879        H  0.28827540  0.07441030  0.27357291     0.18000
C880        C  0.26845483  0.13151121  0.37610730    -0.26000
C881        C  0.26815737  0.15306259  0.39682772     0.36000
C882        C  0.24973250  0.17275563  0.39117767    -0.20000
C883        C  0.23241052  0.17079460  0.36444414    -0.25300
C884        C  0.23267325  0.14904570  0.34375638     0.27400
H885        H  0.28233817  0.11623048  0.38060712     0.13100
N886        N  0.28632534  0.15495990  0.42385776    -0.82600
H887        H  0.21819477  0.18584728  0.36034530     0.18000
N888        N  0.21464189  0.14692712  0.31668662    -0.81200
H889        H  0.29843946  0.13884877  0.42475994     0.33600
H890        H  0.29852348  0.17068631  0.41941960     0.38100
H891        H  0.20244229  0.16298093  0.31577659     0.33600
H892        H  0.22563213  0.14699225  0.29493884     0.30300
H893        H  0.30621474  0.11254594  0.28689260     0.33600
H894        H  0.28360174  0.13534726  0.29293869     0.30300
H895        H  0.19425401  0.05305409  0.31840028     0.38200
H896        H  0.21267356  0.04018236  0.34882380     0.33600
O897        O  0.24677555  0.71810823  0.40592135    -0.80400
O898        O  0.24998353  0.71656993  0.59559402    -0.81900
O899        O  0.28708067  0.68639409  0.50201299    -0.78900
O900        O  0.20173568  0.69127789  0.50292946    -0.77300
O901        O  0.17139662  0.72326962  0.50408529    -0.79100
O902        O  0.32066223  0.71522548  0.50119907    -0.80100
O903        O  0.24608222  0.68829076  0.55292857    -0.81400
O904        O  0.24740466  0.68822310  0.44715513    -0.81700
Eu905      Eu  0.24586350  0.71014339  0.50046342     2.39200
O906        O  0.22176501  0.73654050  0.53601880    -0.89200
O907        O  0.27282915  0.73460300  0.46603323    -0.92800
C908        C  0.24775401  0.69470624  0.41651866     1.01900
C909        C  0.24821403  0.69344931  0.58381651     1.01700
C910        C  0.31163693  0.69209014  0.50237898     1.01700
C911        C  0.17788455  0.69943197  0.50417444     0.99500
H912        H  0.28508485  0.72278901  0.54749059     0.29300
O913        O  0.27429623  0.73402229  0.53442350    -1.01600
H914        H  0.20821616  0.72604727  0.45392264     0.29300
O915        O  0.21993824  0.73648634  0.46700157    -1.04100
O916        O  0.25220176  0.80347313  0.59740825    -0.81300
O917        O  0.24693499  0.80451670  0.40627739    -0.80900
O918        O  0.32476650  0.75938199  0.55253296    -0.79300
O919        O  0.17529680  0.76284105  0.55692006    -0.82700
O920        O  0.17289197  0.76453425  0.45007592    -0.80500
O921        O  0.32160878  0.75583296  0.44507891    -0.79200
O922        O  0.29467262  0.83160903  0.50166871    -0.80700
O923        O  0.20979859  0.83587336  0.50296127    -0.82600
O924        O  0.32472702  0.79943207  0.50030731    -0.79300
O925        O  0.17679898  0.80620875  0.50207802    -0.82000
O926        O  0.29523677  0.76061169  0.59490823    -0.77700
O927        O  0.29058145  0.75902749  0.40444685    -0.77800
O928        O  0.20221507  0.76278752  0.40763525    -0.77400
O929        O  0.20626523  0.76092705  0.59763046    -0.80900
O930        O  0.25368435  0.83324160  0.55613275    -0.80300
O931        O  0.25061458  0.83403458  0.44790802    -0.78700
Eu932      Eu  0.25011713  0.76051981  0.57047730     2.39800
Eu933      Eu  0.24707766  0.76138759  0.43224379     2.39600
Eu934      Eu  0.30123902  0.75847891  0.49973246     2.38400
Eu935      Eu  0.19620167  0.76343783  0.50273687     2.39900
Eu936      Eu  0.25116474  0.81229444  0.50181263     2.39800
O937        O  0.22298167  0.78813118  0.46817338    -0.93100
O938        O  0.27667828  0.78508467  0.53475081    -0.92000
C939        C  0.25371784  0.82687285  0.58688356     1.02100
C940        C  0.24866429  0.82783816  0.41712564     1.00800
C941        C  0.31903019  0.76044204  0.58350403     1.00200
C942        C  0.18218071  0.76159549  0.58746727     1.02200
C943        C  0.17850091  0.76396255  0.41906926     1.01100
C944        C  0.31453321  0.75635259  0.41453919     1.00000
C945        C  0.31842172  0.82331665  0.50103516     1.00000
C946        C  0.18544294  0.82939370  0.50222537     1.02600
H947        H  0.28698978  0.79607512  0.45266323     0.30000
O948        O  0.27568053  0.78571330  0.46632641    -1.05300
H949        H  0.21391223  0.79891905  0.55056260     0.32100
O950        O  0.22425624  0.78771291  0.53676810    -1.07800
N951        N  0.03894558  0.51108359  0.49794707    -0.36900
N952        N  0.49454958  0.54831736  0.49857603    -0.57400
N953        N  0.45790570  0.50649159  0.49430500    -0.36800
N954        N  0.50198078  0.97117785  0.50135215    -0.57400
C955        C  0.05275976  0.53259806  0.50460094     0.26700
C956        C  0.05227146  0.99172632  0.51162523     0.26700
C957        C  0.44167798  0.52596273  0.50232702     0.26700
C958        C  0.44681055  0.98596355  0.50963423     0.26700
C959        C  0.01703424  0.56453937  0.49703114     0.35400
C960        C  0.47253870  0.56158544  0.49183407     0.35400
C961        C  0.02166625  0.95619874  0.49943658     0.35400
C962        C  0.48187107  0.95494802  0.49621063     0.35400
C963        C  0.07784726  0.52609413  0.51460863    -0.22100
C964        C  0.07519910  0.00152016  0.52497262    -0.22100
C965        C  0.41806792  0.51624499  0.51368614    -0.22100
C966        C  0.42289672  0.99208040  0.52379207    -0.22100
C967        C  0.00784419  0.58916580  0.49182084    -0.23200
C968        C  0.47874485  0.58635056  0.48237733    -0.23200
C969        C  0.01588200  0.93138703  0.48961351    -0.23200
C970        C  0.49104312  0.93108006  0.48660170    -0.23200
C971        C  0.04373274  0.55797604  0.50053842    -0.18500
C972        C  0.04693156  0.96549471  0.50673562    -0.18500
C973        C  0.45555343  0.96098465  0.50265211    -0.18500
C974        C  0.44700906  0.55211230  0.49701071    -0.18500
H975        H  0.09366714  0.53894366  0.52122770     0.14400
H976        H  0.09152457  0.99084013  0.53493733     0.14400
H977        H  0.40094363  0.52688694  0.52136830     0.14400
H978        H  0.40840157  0.97893537  0.53344089     0.14400
H979        H  0.01922576  0.60650110  0.48873821     0.12700
H980        H  0.46535833  0.60162802  0.47610342     0.12700
H981        H  0.02945846  0.91584962  0.48522151     0.12700
H982        H  0.47965253  0.91406920  0.48124098     0.12700
H983        H  0.02096918  0.51024162  0.48616728     0.25900
H984        H  0.47541517  0.50801889  0.48135942     0.25900
O985        O  0.50256886  0.94639501  0.90837215    -0.80400
O986        O  0.49808504  0.94647001  0.09856621    -0.81900
O987        O  0.04537444  0.91797853  0.00293551    -0.78900
O988        O  0.45965408  0.91522175  0.00210048    -0.77300
O989        O  0.42698792  0.94482417  0.00300056    -0.79100
O990        O  0.07564653  0.95026766  0.00327560    -0.80100
O991        O  0.49880629  0.91628367  0.05762279    -0.81400
O992        O  0.50489017  0.91619791  0.94916543    -0.81700
Eu993      Eu  0.50169366  0.93735827  0.00337470     2.39200
O994        O  0.47438905  0.96278441  0.03637950    -0.89200
O995        O  0.02678877  0.96446081  0.97019114    -0.92800
C996        C  0.50425551  0.92305099  0.91859297     1.01900
C997        C  0.49779646  0.92298855  0.08832152     1.01700
C998        C  0.06906309  0.92643241  0.00253993     1.01700
C999        C  0.43529243  0.92145145  0.00278202     0.99500
H1000       H  0.03813575  0.95267026  0.05210872     0.29300
O1001       O  0.02670335  0.96305724  0.03865913    -1.01600
H1002       H  0.46453605  0.95105242  0.95479440     0.29300
O1003       O  0.47506028  0.96220128  0.96847339    -1.04100
O1004       O  0.49601345  0.53184066  0.09103188    -0.81300
O1005       O  0.50101445  0.53120923  0.90220813    -0.80900
O1006       O  0.07268286  0.99176002  0.05912714    -0.79300
O1007       O  0.42475190  0.98679633  0.05444708    -0.82700
O1008       O  0.42712969  0.98682427  0.94747985    -0.80500
O1009       O  0.07384685  0.99113478  0.95217665    -0.79200
O1010       O  0.03759654  0.56335462  0.00197307    -0.80700
O1011       O  0.45404550  0.55959121  0.99207271    -0.82600
O1012       O  0.07071311  0.53413874  0.00222645    -0.79300
O1013       O  0.42358510  0.52767899  0.99158990    -0.82000
O1014       O  0.04168290  0.98961186  0.09981716    -0.77700
O1015       O  0.04647176  0.49075452  0.90500203    -0.77800
O1016       O  0.45834535  0.48589774  0.90008810    -0.77400
O1017       O  0.45465299  0.98832478  0.09653835    -0.80900
O1018       O  0.49390283  0.56164264  0.04973385    -0.80300
O1019       O  0.49773132  0.56142505  0.94313240    -0.78700
Eu1020     Eu  0.49950620  0.98896588  0.07181338     2.39800
Eu1021     Eu  0.50118169  0.98890814  0.93468394     2.39600
Eu1022     Eu  0.05149243  0.99070133  0.00527441     2.38400
Eu1023     Eu  0.44763714  0.98751333  0.00182648     2.39900
Eu1024     Eu  0.49710301  0.53956434  0.99644964     2.39800
O1025       O  0.47271291  0.51288709  0.96125031    -0.93100
O1026       O  0.02347049  0.51475740  0.03349636    -0.92000
C1027       C  0.49436437  0.55507275  0.08036207     1.02100
C1028       C  0.49949126  0.55464449  0.91263652     1.00800
C1029       C  0.06563872  0.99134268  0.08963275     1.00200
C1030       C  0.43088113  0.98720317  0.08523732     1.02200
C1031       C  0.43427601  0.48371746  0.90980385     1.01100
C1032       C  0.07010062  0.49202425  0.91680290     1.00000
C1033       C  0.06198981  0.55732017  0.00276890     1.00000
C1034       C  0.43019498  0.55158301  0.99087426     1.02600
H1035       H  0.03641925  0.52712317  0.95310200     0.30000
O1036       O  0.02537148  0.51576386  0.96567413    -1.05300
H1037       H  0.45878413  0.52401349  0.04244905     0.32100
O1038       O  0.47064598  0.51349952  0.02973122    -1.07800
N1039       N  0.28852526  0.73618798  0.98770595    -0.36900
N1040       N  0.25081766  0.77766985  0.99220866    -0.57400
N1041       N  0.20837495  0.74115468  0.99315978    -0.36800
N1042       N  0.24612549  0.69967986  0.99102808    -0.57400
C1043       C  0.30445661  0.75590987  0.99591048     0.26700
C1044       C  0.30188669  0.71430805  0.99348118     0.26700
C1045       C  0.19544741  0.76283646  0.00116100     0.26700
C1046       C  0.19314200  0.72130486  0.00253024     0.26700
C1047       C  0.27281749  0.79141996  0.98712865     0.35400
C1048       C  0.23062933  0.79399426  0.98811776     0.35400
C1049       C  0.26577977  0.68357285  0.98305363     0.35400
C1050       C  0.22374653  0.68620385  0.98756834     0.35400
C1051       C  0.32837426  0.74646842  0.00655270    -0.22100
C1052       C  0.32677909  0.72016548  0.00490080    -0.22100
C1053       C  0.17147999  0.75677229  0.01520898    -0.22100
C1054       C  0.17011007  0.73049304  0.01633864    -0.22100
C1055       C  0.26659591  0.81663196  0.97987127    -0.23200
C1056       C  0.23979291  0.81824660  0.98040814    -0.23200
C1057       C  0.25589021  0.65977030  0.97434173    -0.23200
C1058       C  0.22918289  0.66145879  0.97708939    -0.23200
C1059       C  0.29838690  0.78216426  0.99247683    -0.18500
C1060       C  0.29252166  0.68929923  0.98716674    -0.18500
C1061       C  0.19880914  0.69520045  0.99695920    -0.18500
C1062       C  0.20429177  0.78789355  0.99471365    -0.18500
H1063       H  0.34528518  0.75739760  0.01447385     0.14400
H1064       H  0.34219337  0.70687624  0.01132400     0.14400
H1065       H  0.15657008  0.76990491  0.02381543     0.14400
H1066       H  0.15386926  0.71943621  0.02592028     0.14400
H1067       H  0.27998579  0.83235196  0.97547547     0.12700
H1068       H  0.22840148  0.83546172  0.97665136     0.12700
H1069       H  0.26680710  0.64279242  0.96758943     0.12700
H1070       H  0.21540867  0.64603755  0.97270926     0.12700
H1071       H  0.27066868  0.73759619  0.97553767     0.25900
H1072       H  0.22518145  0.74001769  0.97878314     0.25900
C1073       C  0.49815765  0.71485743  0.22311121     0.86200
C1074       C  0.02218977  0.71546867  0.25141783    -0.54000
C1075       C  0.02119447  0.73704767  0.27053393     0.09200
C1076       C  0.49561570  0.75560787  0.26105058     0.20100
C1077       C  0.47293703  0.71675837  0.24358333    -0.54700
C1078       C  0.47123344  0.73802973  0.26320518     0.09300
C1079       C  0.49930339  0.74065764  0.20439961    -0.54200
C1080       C  0.49802808  0.76188197  0.22412526     0.09800
H1081       H  0.03810974  0.70174463  0.25289871     0.14400
H1082       H  0.49470199  0.77284003  0.27711456     0.00100
H1083       H  0.45765034  0.70228641  0.24257332     0.14700
H1084       H  0.50086482  0.74284678  0.17800958     0.14500
C1085       C  0.25098587  0.53554449  0.26987727     0.86200
C1086       C  0.27450912  0.53016052  0.24691132    -0.54000
C1087       C  0.27255313  0.00674278  0.23159712     0.09200
C1088       C  0.24763038  0.99112234  0.23929847     0.20100
C1089       C  0.22688919  0.53231859  0.24745903    -0.54700
C1090       C  0.22463576  0.00998510  0.23487653     0.09300
C1091       C  0.25145336  0.00876684  0.29475091    -0.54200
C1092       C  0.24872474  0.98659556  0.27682311     0.09800
H1093       H  0.29117507  0.54266234  0.24344425     0.14400
H1094       H  0.24554383  0.97328117  0.22464608     0.00100
H1095       H  0.21200596  0.54703703  0.24504158     0.14700
H1096       H  0.25256554  0.00892207  0.32148456     0.14500
C1097       C  0.50048149  0.71736439  0.77607584     0.86200
C1098       C  0.47622179  0.72057867  0.75385918    -0.54000
C1099       C  0.47621975  0.74237363  0.73530910     0.09200
C1100       C  0.50049420  0.75956619  0.74094995     0.20100
C1101       C  0.02294716  0.72154867  0.75469404    -0.54700
C1102       C  0.02329163  0.74330221  0.73595711     0.09300
C1103       C  0.50058006  0.74232075  0.79674414    -0.54200
C1104       C  0.50084238  0.76426405  0.77841187     0.09800
H1105       H  0.46010536  0.70698732  0.75319512     0.14400
H1106       H  0.50048102  0.77747003  0.72623242     0.00100
H1107       H  0.03914391  0.70809986  0.75508635     0.14700
H1108       H  0.49989420  0.74316809  0.82340506     0.14500
C1109       C  0.25434878  0.53074699  0.72324492     0.86200
C1110       C  0.22988981  0.52974618  0.74530766    -0.54000
C1111       C  0.22724499  0.00881790  0.77130707     0.09200
C1112       C  0.25157162  0.99149999  0.76618076     0.20100
C1113       C  0.27740490  0.52729971  0.74725298    -0.54700
C1114       C  0.27523331  0.00941974  0.77292909     0.09300
C1115       C  0.25289779  0.00818262  0.71009553    -0.54200
C1116       C  0.25236395  0.98635115  0.72857025     0.09800
H1117       H  0.21505293  0.54462926  0.74499550     0.14400
H1118       H  0.25148253  0.97389486  0.78145357     0.00100
H1119       H  0.29472413  0.53913921  0.74811769     0.14700
H1120       H  0.25371386  0.00773840  0.68334567     0.14500
C1121       C  0.20046207  0.00455618  0.21556602    -0.20100
C1122       C  0.20157696  0.99480815  0.18323642     0.36100
C1123       C  0.17842491  0.99178528  0.16502502    -0.26100
C1124       C  0.15403980  0.99870610  0.17830042     0.02500
C1125       C  0.15371463  0.50349522  0.20480579     0.27400
C1126       C  0.17651219  0.50787667  0.22363978    -0.25200
N1127       N  0.22622713  0.98908626  0.16817008    -0.82600
H1128       H  0.17956404  0.98467624  0.13993634     0.13200
C1129       C  0.13052901  0.99775627  0.15680048     0.02500
N1130       N  0.12853703  0.51113730  0.21724664    -0.81200
H1131       H  0.17471274  0.51653984  0.24782921     0.18000
C1132       C  0.10911978  0.98210038  0.16511719    -0.26000
C1133       C  0.08728254  0.97991964  0.14399795     0.36000
C1134       C  0.08703217  0.99370381  0.11408952    -0.20000
C1135       C  0.11012960  0.50510159  0.10090936    -0.25300
C1136       C  0.13243163  0.50540142  0.12117005     0.27400
H1137       H  0.10976429  0.97112117  0.18772807     0.13100
N1138       N  0.06583385  0.96329833  0.15235746    -0.82600
H1139       H  0.11028034  0.51632947  0.07848124     0.18000
N1140       N  0.15490636  0.52045785  0.11208140    -0.81200
H1141       H  0.06904109  0.95469503  0.17524595     0.33600
H1142       H  0.06534526  0.94850790  0.13493089     0.38100
H1143       H  0.15182048  0.52960743  0.08952532     0.33600
H1144       H  0.15712918  0.53490850  0.12976348     0.30300
H1145       H  0.13032715  0.51898268  0.24087593     0.33600
H1146       H  0.12154661  0.52579577  0.20210962     0.30300
H1147       H  0.22801835  0.00029299  0.14696536     0.38200
H1148       H  0.22599374  0.96985445  0.16092825     0.33600
C1149       C  0.40851373  0.98667663  0.10867478    -0.20100
C1150       C  0.38605756  0.97156431  0.10196336     0.36100
C1151       C  0.36380665  0.97376577  0.12220399    -0.26100
C1152       C  0.36337060  0.99072893  0.14902493     0.02500
C1153       C  0.38511942  0.50315316  0.15108394     0.27400
C1154       C  0.40727325  0.50056598  0.13053766    -0.25200
N1155       N  0.38591669  0.95406239  0.07450044    -0.82600
H1156       H  0.34661641  0.96223649  0.11700330     0.13200
C1157       C  0.33910465  0.99284749  0.16931799     0.02500
N1158       N  0.38620759  0.51959122  0.17954459    -0.81200
H1159       H  0.42509333  0.51085959  0.13657860     0.18000
C1160       C  0.34002895  0.98648795  0.20287161    -0.26000
C1161       C  0.31788956  0.98933290  0.22321219     0.36000
C1162       C  0.29424668  0.99851941  0.20965988    -0.20000
C1163       C  0.29195002  0.50322720  0.17415270    -0.25300
C1164       C  0.31308203  0.49956793  0.15224558     0.27400
H1165       H  0.35826020  0.97967482  0.21331492     0.13100
N1166       N  0.31936791  0.98312986  0.25767902    -0.82600
H1167       H  0.27353974  0.51048983  0.16489748     0.18000
N1168       N  0.30963933  0.50417250  0.11759116    -0.81200
H1169       H  0.33780722  0.97571707  0.26347753     0.33600
H1170       H  0.31746460  0.00012356  0.27112447     0.38100
H1171       H  0.29025404  0.50924373  0.11247824     0.33600
H1172       H  0.32127773  0.51989552  0.11125574     0.30300
H1173       H  0.40480663  0.52780077  0.18196517     0.33600
H1174       H  0.37313705  0.53467553  0.17561191     0.30300
H1175       H  0.40014367  0.94011517  0.07897885     0.38200
H1176       H  0.36796437  0.94446473  0.07288356     0.33600
C1177       C  0.49940116  0.78821103  0.21011464    -0.20100
C1178       C  0.47996699  0.80678162  0.21658824     0.36100
C1179       C  0.48041766  0.83016760  0.19929084    -0.26100
C1180       C  0.50000550  0.83536741  0.17599948     0.02500
C1181       C  0.02393026  0.81666283  0.17519870     0.27400
C1182       C  0.02319928  0.79323536  0.19229171    -0.25200
N1183       N  0.45931120  0.80150240  0.23963352    -0.82600
H1184       H  0.46493962  0.84404129  0.20309430     0.13200
C1185       C  0.49780255  0.85844597  0.15488017     0.02500
N1186       N  0.04698416  0.82407392  0.15717684    -0.81200
H1187       H  0.03973026  0.78028863  0.19079243     0.18000
C1188       C  0.00699018  0.88018153  0.16662240    -0.26000
C1189       C  0.00681401  0.90198037  0.14600421     0.36000
C1190       C  0.49633167  0.90185392  0.11305088    -0.20000
C1191       C  0.48449444  0.87859883  0.10361481    -0.25300
C1192       C  0.48504780  0.85697375  0.12415606     0.27400
H1193       H  0.01248816  0.88210416  0.19231245     0.13100
N1194       N  0.01436117  0.92648216  0.15917972    -0.82600
H1195       H  0.47501764  0.87716305  0.07981453     0.18000
N1196       N  0.47269138  0.83347066  0.11394992    -0.81200
H1197       H  0.02093098  0.92464225  0.18347351     0.33600
H1198       H  0.99752672  0.93781564  0.16029942     0.38100
H1199       H  0.46363592  0.83571618  0.09102039     0.33600
H1200       H  0.48732507  0.81972589  0.11069092     0.30300
H1201       H  0.06159485  0.81019440  0.15955167     0.33600
H1202       H  0.04226639  0.82483963  0.13215400     0.30300
H1203       H  0.44796428  0.78674360  0.22969348     0.38200
H1204       H  0.44692459  0.81732809  0.24199838     0.33600
C1205       C  0.49350466  0.57597153  0.10481875    -0.20100
C1206       C  0.47359495  0.59462745  0.10383618     0.36100
C1207       C  0.47530278  0.61612012  0.12465128    -0.26100
C1208       C  0.49656090  0.61934272  0.14625532     0.02500
C1209       C  0.01633796  0.59519361  0.15597110     0.27400
C1210       C  0.01422377  0.57382150  0.13475022    -0.25200
N1211       N  0.45187651  0.59171116  0.08154735    -0.82600
H1212       H  0.46024713  0.63070844  0.12365967     0.13200
C1213       C  0.49867471  0.64352349  0.16552001     0.02500
N1214       N  0.03639955  0.59609640  0.18080858    -0.81200
H1215       H  0.02809153  0.55821431  0.13684597     0.18000
C1216       C  0.99976087  0.64045458  0.20542419    -0.26000
C1217       C  0.99953630  0.66360586  0.22334822     0.36000
C1218       C  0.49932588  0.68989820  0.20267044    -0.20000
C1219       C  0.50099864  0.69004848  0.16789808    -0.25300
C1220       C  0.50072556  0.66725618  0.14935851     0.27400
H1221       H  0.99758254  0.62248517  0.21845510     0.13100
N1222       N  0.99706094  0.66274151  0.25851416    -0.82600
H1223       H  0.50241223  0.70763772  0.15436831     0.18000
N1224       N  0.50247049  0.66808739  0.11397786    -0.81200
H1225       H  0.01272427  0.65212151  0.26786192     0.33600
H1226       H  0.97971999  0.65303665  0.26423824     0.38100
H1227       H  0.50358366  0.68698907  0.10565612     0.33600
H1228       H  0.52002416  0.65924072  0.10716390     0.30300
H1229       H  0.04724329  0.57911901  0.18075398     0.33600
H1230       H  0.04937696  0.61081222  0.17456167     0.30300
H1231       H  0.44151302  0.57531659  0.08856342     0.38200
H1232       H  0.43892318  0.60710609  0.08389298     0.33600
C1233       C  0.08992660  0.90711362  0.00134795    -0.20100
C1234       C  0.11266299  0.91057794  0.98203380     0.36100
C1235       C  0.13155989  0.89110446  0.98116934    -0.26100
C1236       C  0.12786965  0.86839195  0.99888684     0.02500
C1237       C  0.10509897  0.86479972  0.01782673     0.27400
C1238       C  0.08634410  0.88427349  0.01895936    -0.25200
N1239       N  0.11616466  0.93346203  0.96285432    -0.82600
H1240       H  0.14912401  0.89347962  0.96647854     0.13200
C1241       C  0.14788746  0.84825153  0.99722902     0.02500
N1242       N  0.10111214  0.84131562  0.03559164    -0.81200
H1243       H  0.06881159  0.88161580  0.03364081     0.18000
C1244       C  0.16301949  0.84319597  0.02526913    -0.26000
C1245       C  0.18188186  0.82373203  0.02487065     0.36000
C1246       C  0.18506811  0.80894194  0.99606838    -0.20000
C1247       C  0.16993393  0.81398453  0.96805079    -0.25300
C1248       C  0.15136078  0.83370984  0.96828426     0.27400
H1249       H  0.16009840  0.85453297  0.04738637     0.13100
N1250       N  0.19748446  0.81859638  0.05359899    -0.82600
H1251       H  0.17267402  0.80246756  0.94605456     0.18000
N1252       N  0.13593381  0.83900306  0.93945014    -0.81200
H1253       H  0.19228469  0.83090822  0.07288417     0.33600
H1254       H  0.21696287  0.82281399  0.04778258     0.38100
H1255       H  0.14108554  0.82666330  0.92017412     0.33600
H1256       H  0.11637332  0.83506515  0.94518474     0.30300
H1257       H  0.08341565  0.84183689  0.04855592     0.33600
H1258       H  0.09940493  0.82654824  0.01825286     0.30300
H1259       H  0.10144624  0.93379937  0.94492726     0.38200
H1260       H  0.13399550  0.93294231  0.95018635     0.33600
C1261       C  0.31966523  0.80128743  0.99616078    -0.20100
C1262       C  0.32167627  0.81705810  0.02451347     0.36100
C1263       C  0.34030450  0.83671354  0.02512751    -0.26100
C1264       C  0.35715705  0.84077768  0.99839439     0.02500
C1265       C  0.35576042  0.82454676  0.97056829     0.27400
C1266       C  0.33691625  0.80494801  0.96971407    -0.25200
N1267       N  0.30549307  0.81351307  0.05317181    -0.82600
H1268       H  0.34184363  0.84878442  0.04682895     0.13200
C1269       C  0.37679646  0.86158024  0.00036591     0.02500
N1270       N  0.37328287  0.82824926  0.94323621    -0.81200
H1271       H  0.33524280  0.79280345  0.94809825     0.18000
C1272       C  0.40334467  0.85517676  0.99972201    -0.26000
C1273       C  0.42284495  0.87407390  0.00143843     0.36000
C1274       C  0.41553905  0.90033454  0.00307142    -0.20000
C1275       C  0.38870649  0.90653383  0.00447985    -0.27900
C1276       C  0.36930313  0.88743257  0.00332654     0.27400
H1277       H  0.40886142  0.83516501  0.99826623     0.13100
N1278       N  0.44990277  0.86643794  0.00145801    -0.82600
H1279       H  0.38271242  0.92638101  0.00620801     0.18000
N1280       N  0.34203115  0.89416635  0.00489357    -0.81200
H1281       H  0.45167195  0.84664874  0.99812801     0.33600
H1282       H  0.45736368  0.87033941  0.02493237     0.38100
H1283       H  0.33981216  0.91397664  0.00748712     0.33600
H1284       H  0.33350580  0.88914562  0.98234570     0.30300
H1285       H  0.36983054  0.81455263  0.92487931     0.33600
H1286       H  0.36908569  0.84609150  0.93288141     0.30300
H1287       H  0.29327693  0.79756429  0.05094026     0.38200
H1288       H  0.29341663  0.82957793  0.05537982     0.33600
C1289       C  0.40887443  0.57105353  0.98888733    -0.20100
C1290       C  0.41378594  0.59766952  0.99239698     0.36100
C1291       C  0.39289205  0.61500115  0.99187202    -0.26100
C1292       C  0.36709291  0.60658397  0.98776209     0.02500
C1293       C  0.36192898  0.58031887  0.98313192     0.27400
C1294       C  0.38285949  0.56282949  0.98380343    -0.25200
N1295       N  0.43982914  0.60739467  0.99670009    -0.82600
H1296       H  0.39684561  0.63529426  0.99479844     0.13200
C1297       C  0.34612968  0.62602887  0.98729411     0.02500
N1298       N  0.33565811  0.57157293  0.97691974    -0.81200
H1299       H  0.37871798  0.54264788  0.98035858     0.18000
C1300       C  0.34235472  0.64029923  0.95845577    -0.26000
C1301       C  0.32523171  0.66131901  0.95806867     0.36000
C1302       C  0.31136515  0.66773580  0.98690259    -0.20000
C1303       C  0.31482862  0.65328562  0.01564312    -0.25300
C1304       C  0.33241520  0.63262057  0.01628205     0.27400
H1305       H  0.35340126  0.63543015  0.93650865     0.13100
N1306       N  0.32179825  0.67617945  0.92861774    -0.82600
H1307       H  0.30409273  0.65848481  0.03770973     0.18000
N1308       N  0.33734879  0.61915992  0.04652636    -0.81200
H1309       H  0.33320239  0.66874472  0.90945267     0.33600
H1310       H  0.32892520  0.69460894  0.93337817     0.38100
H1311       H  0.32642120  0.62710876  0.06579693     0.33600
H1312       H  0.33070920  0.60036455  0.04368088     0.30300
H1313       H  0.33539673  0.55177585  0.97293605     0.33600
H1314       H  0.32455587  0.57484833  0.99811780     0.30300
H1315       H  0.44046675  0.61765891  0.01885406     0.38200
H1316       H  0.44374463  0.62016482  0.97749648     0.33600
C1317       C  0.08144749  0.57834356  0.00391494    -0.20100
C1318       C  0.07435512  0.60386792  0.01165455     0.36100
C1319       C  0.09352836  0.62298322  0.01197722    -0.26100
C1320       C  0.11957354  0.61729157  0.00430755     0.02500
C1321       C  0.12688364  0.59200302  0.99656540     0.27400
C1322       C  0.10779305  0.57273785  0.99679898    -0.25200
N1323       N  0.04788072  0.61057126  0.01958380    -0.82600
H1324       H  0.08803106  0.64246808  0.01813062     0.13200
C1325       C  0.13890198  0.63817378  0.00369773     0.02500
N1326       N  0.15356098  0.58609656  0.98807647    -0.81200
H1327       H  0.11356042  0.55332527  0.99087110     0.18000
C1328       C  0.16024404  0.63736140  0.02537543    -0.26000
C1329       C  0.17943626  0.65653523  0.02469874     0.36000
C1330       C  0.17752916  0.67622141  0.00109226    -0.20000
C1331       C  0.15577996  0.67741387  0.98011452    -0.25300
C1332       C  0.13621406  0.65865799  0.98142084     0.27400
H1333       H  0.16182378  0.62176876  0.04284347     0.13100
N1334       N  0.20102855  0.65601018  0.04744300    -0.82600
H1335       H  0.15438770  0.69277681  0.96229318     0.18000
N1336       N  0.11386640  0.66005019  0.95992365    -0.81200
H1337       H  0.19962541  0.64011445  0.06296750     0.33600
H1338       H  0.19954685  0.67224166  0.06247995     0.38100
H1339       H  0.11473654  0.67653389  0.94538602     0.33600
H1340       H  0.11471634  0.64440889  0.94381427     0.30300
H1341       H  0.15565526  0.56654010  0.98310937     0.33600
H1342       H  0.15795888  0.59570907  0.96618327     0.30300
H1343       H  0.04171427  0.62462988  0.00300224     0.38200
H1344       H  0.04765784  0.61853428  0.04326377     0.33600
C1345       C  0.41265338  0.98653748  0.89261200    -0.20100
C1346       C  0.39074061  0.46658601  0.89086670     0.36100
C1347       C  0.36874707  0.46900489  0.87036486    -0.26100
C1348       C  0.36787299  0.99194258  0.85241950     0.02500
C1349       C  0.39056641  0.00664282  0.84593405     0.27400
C1350       C  0.41287282  0.00364355  0.86599944    -0.25200
N1351       N  0.39019736  0.44910685  0.91821891    -0.82600
H1352       H  0.35119918  0.45803419  0.87559786     0.13200
C1353       C  0.34328834  0.99566345  0.83339270     0.02500
N1354       N  0.39061128  0.02492506  0.81950248    -0.81200
H1355       H  0.42997645  0.01553340  0.86185417     0.18000
C1356       C  0.33199676  0.51473027  0.82752533    -0.26000
C1357       C  0.30874969  0.51979697  0.81024008     0.36000
C1358       C  0.29702207  0.00420499  0.79657734    -0.20000
C1359       C  0.30855913  0.97984824  0.79745352    -0.25300
C1360       C  0.33165992  0.97538669  0.81553401     0.27400
H1361       H  0.34094120  0.52965990  0.84237372     0.13100
N1362       N  0.29683057  0.54469616  0.81234155    -0.82600
H1363       H  0.30011691  0.96447623  0.78310469     0.18000
N1364       N  0.34365781  0.95049602  0.81533726    -0.81200
H1365       H  0.30766632  0.55676813  0.82781009     0.33600
H1366       H  0.27843025  0.54242492  0.82326997     0.38100
H1367       H  0.33266298  0.93766932  0.80110775     0.33600
H1368       H  0.36190023  0.95223924  0.80384240     0.30300
H1369       H  0.40866476  0.03436531  0.81822542     0.33600
H1370       H  0.38845714  0.01476261  0.79742069     0.30300
H1371       H  0.37219529  0.43956728  0.91940927     0.38200
H1372       H  0.40444411  0.43512540  0.91391670     0.33600
C1373       C  0.09117317  0.99344751  0.89812167    -0.20100
C1374       C  0.11579643  0.00281543  0.90929782     0.36100
C1375       C  0.13736054  0.00304739  0.88787725    -0.26100
C1376       C  0.13663499  0.49529764  0.84993670     0.02500
C1377       C  0.11224311  0.48559830  0.83902178     0.27400
C1378       C  0.09079845  0.48460728  0.86107817    -0.25200
N1379       N  0.11885579  0.01275488  0.94220940    -0.82600
H1380       H  0.15612885  0.00979544  0.89691052     0.13200
C1381       C  0.15963415  0.49847969  0.82734115     0.02500
N1382       N  0.10918016  0.47724320  0.80546199    -0.81200
H1383       H  0.07226754  0.47684674  0.85267021     0.18000
C1384       C  0.16890354  0.97767625  0.81534373    -0.26000
C1385       C  0.19177351  0.98020615  0.79597545     0.36000
C1386       C  0.20486063  0.00397847  0.79434221    -0.20000
C1387       C  0.19448955  0.52501267  0.80433899    -0.25300
C1388       C  0.17191803  0.52261654  0.82396292     0.27400
H1389       H  0.15919562  0.95924096  0.81666923     0.13100
N1390       N  0.20111013  0.95881665  0.77725260    -0.82600
H1391       H  0.20403628  0.54350269  0.80258571     0.18000
N1392       N  0.16113551  0.54476512  0.84014144    -0.81200
H1393       H  0.18611333  0.95285802  0.76143068     0.33600
H1394       H  0.20501912  0.94386755  0.79360839     0.38100
H1395       H  0.17229683  0.56107974  0.83499708     0.33600
H1396       H  0.14253823  0.54797071  0.83018376     0.30300
H1397       H  0.09013491  0.47054627  0.80138275     0.33600
H1398       H  0.11165379  0.49324778  0.79034083     0.30300
H1399       H  0.10738613  0.02927499  0.94400421     0.38200
H1400       H  0.13818165  0.01851336  0.94656246     0.33600
C1401       C  0.49999430  0.57570850  0.88833774    -0.20100
C1402       C  0.01989407  0.59894044  0.89796113     0.36100
C1403       C  0.01942015  0.61997535  0.87642302    -0.26100
C1404       C  0.50157482  0.62027284  0.84896036     0.02500
C1405       C  0.47808218  0.61303214  0.86466423     0.27400
C1406       C  0.47763783  0.59103114  0.88463228    -0.25200
N1407       N  0.03673521  0.59946204  0.92640633    -0.82600
H1408       H  0.03118789  0.63672032  0.88206468     0.13200
C1409       C  0.50311420  0.64467164  0.83026115     0.02500
N1410       N  0.45479644  0.62808658  0.86021468    -0.81200
H1411       H  0.45986240  0.58593157  0.89768933     0.18000
C1412       C  0.49644793  0.64501476  0.79683992    -0.26000
C1413       C  0.49626440  0.66805148  0.77880121     0.36000
C1414       C  0.50148346  0.69174977  0.79501176    -0.20000
C1415       C  0.99263010  0.69074382  0.82812492    -0.25300
C1416       C  0.99371076  0.66765535  0.84583020     0.27400
H1417       H  0.49147005  0.62712882  0.78473593     0.13100
N1418       N  0.49061072  0.66734235  0.74407262    -0.82600
H1419       H  0.98687721  0.70762611  0.84151243     0.18000
N1420       N  0.98774699  0.66743242  0.88049616    -0.81200
H1421       H  0.48609220  0.64870794  0.73643163     0.33600
H1422       H  0.50766465  0.67251506  0.73150004     0.38100
H1423       H  0.98347712  0.68586814  0.88904238     0.33600
H1424       H  0.97077263  0.65648955  0.88370495     0.30300
H1425       H  0.43901563  0.61985733  0.87276946     0.33600
H1426       H  0.45805022  0.64602071  0.87098704     0.30300
H1427       H  0.02493081  0.60207807  0.94716724     0.38200
H1428       H  0.04914438  0.61541063  0.92567210     0.33600
C1429       C  0.50525210  0.90238990  0.89362267    -0.20100
C1430       C  0.48637347  0.90062715  0.86826168     0.36100
C1431       C  0.48639419  0.87917095  0.84722445    -0.26100
C1432       C  0.50503512  0.85967378  0.85076308     0.02500
C1433       C  0.01738499  0.85944894  0.87742578     0.27400
C1434       C  0.01855052  0.88062163  0.89887826    -0.25200
N1435       N  0.46638908  0.91983846  0.86510774    -0.82600
H1436       H  0.47153283  0.87737229  0.82827814     0.13200
C1437       C  0.50289942  0.83628016  0.83003783     0.02500
N1438       N  0.03294148  0.83704447  0.88367116    -0.81200
H1439       H  0.03134967  0.87993098  0.92017739     0.18000
C1440       C  0.01652102  0.83176795  0.80457491    -0.26000
C1441       C  0.01607083  0.80853224  0.78675301     0.36000
C1442       C  0.50112987  0.78997603  0.79403711    -0.20000
C1443       C  0.48072484  0.79656391  0.81554733    -0.25300
C1444       C  0.48126831  0.81964255  0.83340039     0.27400
H1445       H  0.03227736  0.84535360  0.80064257     0.13100
N1446       N  0.03657784  0.80272847  0.76366695    -0.82600
H1447       H  0.46448279  0.78341172  0.81875305     0.18000
N1448       N  0.46016211  0.82607552  0.85536648    -0.81200
H1449       H  0.04967243  0.81807617  0.76181161     0.33600
H1450       H  0.04723902  0.78736438  0.77321628     0.38100
H1451       H  0.44559526  0.81198253  0.85465529     0.33600
H1452       H  0.46763502  0.82620552  0.87936208     0.30300
H1453       H  0.04452381  0.83967647  0.90467037     0.33600
H1454       H  0.02012253  0.82195776  0.88893352     0.30300
H1455       H  0.47539703  0.93657866  0.85669670     0.38200
H1456       H  0.45282594  0.91458464  0.84698224     0.33600
C1457       C  0.34166112  0.76118232  0.60723980    -0.20100
C1458       C  0.36664333  0.77063815  0.59765909     0.36100
C1459       C  0.38813052  0.76854751  0.61931998    -0.26100
C1460       C  0.38546582  0.75776254  0.65075509     0.02500
C1461       C  0.36040265  0.74946261  0.66107831     0.27400
C1462       C  0.33880541  0.75134282  0.63933111    -0.25200
N1463       N  0.37018882  0.78253866  0.56602458    -0.82600
H1464       H  0.40722014  0.77539309  0.61162242     0.13200
C1465       C  0.40932929  0.75459804  0.67194551     0.02500
N1466       N  0.35710001  0.73854351  0.69329628    -0.81200
H1467       H  0.31984309  0.74425407  0.64712244     0.18000
C1468       C  0.41110091  0.76723483  0.70255711    -0.26000
C1469       C  0.43335128  0.76440344  0.72285704     0.36000
C1470       C  0.45410595  0.74848251  0.71277077    -0.20000
C1471       C  0.45256921  0.73611295  0.68212740    -0.25300
C1472       C  0.43055486  0.73916673  0.66148588     0.27400
H1473       H  0.39515301  0.77936691  0.71070935     0.13100
N1474       N  0.43465143  0.77736120  0.75397291    -0.82600
H1475       H  0.46846780  0.72369414  0.67453590     0.18000
N1476       N  0.42951200  0.72637093  0.63009155    -0.81200
H1477       H  0.41853958  0.77165437  0.76807550     0.33600
H1478       H  0.43302333  0.79702759  0.74965876     0.38100
H1479       H  0.44673077  0.71604687  0.62589126     0.33600
H1480       H  0.41426248  0.71300343  0.63102958     0.30300
H1481       H  0.33752558  0.73346862  0.69721125     0.33600
H1482       H  0.36791800  0.72156855  0.69404084     0.30300
H1483       H  0.35903353  0.79931935  0.56585321     0.38200
H1484       H  0.38968227  0.78813803  0.56267176     0.33600
C1485       C  0.04674977  0.75036125  0.71569919    -0.20100
C1486       C  0.04458919  0.76047540  0.68363663     0.36100
C1487       C  0.06727259  0.76428157  0.66447999    -0.26100
C1488       C  0.09226017  0.75739932  0.67621025     0.02500
C1489       C  0.09452941  0.74812497  0.70877070     0.27400
C1490       C  0.07190837  0.74520407  0.72822199    -0.25200
N1491       N  0.01940611  0.76574655  0.66971847    -0.82600
H1492       H  0.06522859  0.77187826  0.63978687     0.13200
C1493       C  0.11551097  0.75854888  0.65363838     0.02500
N1494       N  0.11966011  0.74081372  0.72165458    -0.81200
H1495       H  0.07391950  0.73810001  0.75315140     0.18000
C1496       C  0.13874744  0.77088703  0.66373908    -0.26000
C1497       C  0.16123177  0.77146521  0.64341081     0.36000
C1498       C  0.16022637  0.76014817  0.61172617    -0.20000
C1499       C  0.13692565  0.74794763  0.60171149    -0.25300
C1500       C  0.11483948  0.74669856  0.62230317     0.27400
H1501       H  0.13933300  0.78018547  0.68763026     0.13100
N1502       N  0.18458809  0.78429210  0.65444282    -0.82600
H1503       H  0.13601461  0.73892791  0.57763810     0.18000
N1504       N  0.09182453  0.73309175  0.61159048    -0.81200
H1505       H  0.18145490  0.79301732  0.67733538     0.33600
H1506       H  0.19885817  0.77029225  0.65834355     0.38100
H1507       H  0.09440725  0.72568500  0.58783711     0.33600
H1508       H  0.08932130  0.71739540  0.62723046     0.30300
H1509       H  0.11798049  0.73458433  0.74603976     0.33600
H1510       H  0.12624262  0.72512670  0.70790744     0.30300
H1511       H  0.01896171  0.78505861  0.66299652     0.38200
H1512       H  0.01730936  0.75473102  0.64831360     0.33600
C1513       C  0.24917593  0.67041613  0.60588843    -0.20100
C1514       C  0.25070586  0.67169401  0.64071243     0.36100
C1515       C  0.25200281  0.64877056  0.65909364    -0.26100
C1516       C  0.25215807  0.62463736  0.64354494     0.02500
C1517       C  0.25125980  0.62332361  0.60897797     0.27400
C1518       C  0.24929830  0.64596326  0.59074231    -0.25200
N1519       N  0.25106749  0.69600547  0.65739038    -0.82600
H1520       H  0.25272913  0.64968730  0.68576493     0.13200
C1521       C  0.25339472  0.60079407  0.66353832     0.02500
N1522       N  0.25285867  0.59895546  0.59243183    -0.81200
H1523       H  0.24836598  0.64423053  0.56417601     0.18000
C1524       C  0.23397483  0.58195706  0.65980294    -0.26000
C1525       C  0.23459356  0.55918836  0.67817018     0.36000
C1526       C  0.25481063  0.55491925  0.70142072    -0.20000
C1527       C  0.27433830  0.57407878  0.70474303    -0.25300
C1528       C  0.27406174  0.59653667  0.68572868     0.27400
H1529       H  0.21805478  0.58501249  0.64258911     0.13100
N1530       N  0.21435945  0.54049918  0.67334706    -0.82600
H1531       H  0.29002933  0.57238072  0.72217353     0.18000
N1532       N  0.29489834  0.61500121  0.68865416    -0.81200
H1533       H  0.21458703  0.53489603  0.64857989     0.33600
H1534       H  0.19633007  0.54920262  0.67816026     0.38100
H1535       H  0.30874032  0.60912233  0.70604561     0.33600
H1536       H  0.30461320  0.61568715  0.66597843     0.30300
H1537       H  0.25168468  0.60123285  0.56687084     0.33600
H1538       H  0.27137642  0.59131865  0.59730340     0.30300
H1539       H  0.23266331  0.70438269  0.65416062     0.38200
H1540       H  0.25345596  0.69348964  0.68277759     0.33600
C1541       C  0.25519812  0.84831965  0.61139072    -0.20100
C1542       C  0.26808020  0.87156516  0.60358128     0.36100
C1543       C  0.26702200  0.89243310  0.62545708    -0.26100
C1544       C  0.25379880  0.89065454  0.65558159     0.02500
C1545       C  0.24166363  0.86731944  0.66426552     0.27400
C1546       C  0.24249151  0.84634549  0.64211019    -0.25200
N1547       N  0.28270819  0.87399870  0.57361151    -0.82600
H1548       H  0.27657864  0.91024056  0.61880434     0.13200
C1549       C  0.25237961  0.91378047  0.67708799     0.02500
N1550       N  0.22802023  0.86525617  0.69513029    -0.81200
H1551       H  0.23256487  0.82867752  0.64845992     0.18000
C1552       C  0.23179612  0.93117828  0.67263429    -0.26000
C1553       C  0.23104847  0.95452608  0.69010266     0.36000
C1554       C  0.25123760  0.96057771  0.71267313    -0.20000
C1555       C  0.27161690  0.94297443  0.71749163    -0.25300
C1556       C  0.27247924  0.91968583  0.69975563     0.27400
H1557       H  0.21660310  0.92676927  0.65483324     0.13100
N1558       N  0.21017848  0.97245089  0.68447443    -0.82600
H1559       H  0.28749936  0.94787310  0.73393525     0.18000
N1560       N  0.29418412  0.90246743  0.70365769    -0.81200
H1561       H  0.19974243  0.97440900  0.70649899     0.33600
H1562       H  0.19703251  0.96530317  0.66694327     0.38100
H1563       H  0.30772382  0.90992118  0.72049724     0.33600
H1564       H  0.28697830  0.88552347  0.71391301     0.30300
H1565       H  0.21983056  0.84699651  0.69765342     0.33600
H1566       H  0.24181821  0.86722777  0.71400696     0.30300
H1567       H  0.27488947  0.88922375  0.56014639     0.38200
H1568       H  0.30205354  0.87862775  0.57970554     0.33600
C1569       C  0.33071998  0.67058096  0.50407332    -0.20100
C1570       C  0.32332545  0.64576744  0.51477851     0.36100
C1571       C  0.34164644  0.62576407  0.51424161    -0.26100
C1572       C  0.36724790  0.62993882  0.50317831     0.02500
C1573       C  0.37503143  0.65465771  0.49340311     0.27400
C1574       C  0.35678753  0.67477112  0.49420935    -0.25200
N1575       N  0.29738514  0.64074083  0.52661538    -0.82600
H1576       H  0.33578217  0.60680063  0.52220667     0.13200
C1577       C  0.38596125  0.60837954  0.50192954     0.02500
N1578       N  0.40140529  0.65910324  0.48234969    -0.81200
H1579       H  0.36288881  0.69367966  0.48641898     0.18000
C1580       C  0.39397946  0.59889972  0.47117127    -0.26000
C1581       C  0.41311908  0.57980326  0.46877645     0.36000
C1582       C  0.42495391  0.57051243  0.49791651    -0.20000
C1583       C  0.41634562  0.57943133  0.52869747    -0.25300
C1584       C  0.39672805  0.59815629  0.53101489     0.27400
H1585       H  0.38537074  0.60653788  0.44884562     0.13100
N1586       N  0.41996584  0.57037625  0.43656288    -0.82600
H1587       H  0.42528050  0.57197583  0.55092041     0.18000
N1588       N  0.38800752  0.60716301  0.56267125    -0.81200
H1589       H  0.42896947  0.58535233  0.42378187     0.33600
H1590       H  0.43348320  0.55543398  0.43771168     0.38100
H1591       H  0.39764277  0.59740282  0.58158856     0.33600
H1592       H  0.39341958  0.62641800  0.56477401     0.30300
H1593       H  0.40397940  0.67828052  0.47572859     0.33600
H1594       H  0.41392336  0.65571289  0.50226107     0.30300
H1595       H  0.28913570  0.62632636  0.51196458     0.38200
H1596       H  0.29882311  0.63381293  0.55070879     0.33600
C1597       C  0.15680339  0.67981779  0.50616469    -0.20100
C1598       C  0.13096294  0.68435712  0.49477030     0.36100
C1599       C  0.11235927  0.66448176  0.49613291    -0.26100
C1600       C  0.11904223  0.64034212  0.50843286     0.02500
C1601       C  0.14435677  0.63596703  0.52077861     0.27400
C1602       C  0.16298829  0.65570567  0.51946460    -0.25200
N1603       N  0.12382687  0.70872598  0.48103517    -0.82600
H1604       H  0.09273015  0.66756430  0.48677893     0.13200
C1605       C  0.09972522  0.61935889  0.50669468     0.02500
N1606       N  0.15113579  0.61133301  0.53401753    -0.81200
H1607       H  0.18251824  0.65216759  0.52885200     0.18000
C1608       C  0.09975853  0.60321031  0.47906091    -0.26000
C1609       C  0.08149381  0.58332132  0.47594545     0.36000
C1610       C  0.06330445  0.57905554  0.50176298    -0.20000
C1611       C  0.06346528  0.59519976  0.52949134    -0.25300
C1612       C  0.08123049  0.61564967  0.53193265     0.27400
H1613       H  0.11379308  0.60644005  0.45944473     0.13100
N1614       N  0.08151842  0.56854821  0.44595752    -0.82600
H1615       H  0.04938748  0.59197574  0.54904846     0.18000
N1616       N  0.08023684  0.63298557  0.55948578    -0.81200
H1617       H  0.09908212  0.55830410  0.44506276     0.33600
H1618       H  0.06632785  0.55517363  0.44533072     0.38100
H1619       H  0.06508429  0.62788339  0.57553391     0.33600
H1620       H  0.09769797  0.63105840  0.57268358     0.30300
H1621       H  0.17065787  0.61118704  0.54182793     0.33600
H1622       H  0.13970432  0.60837892  0.55504804     0.30300
H1623       H  0.13437599  0.71098856  0.45914452     0.38200
H1624       H  0.10400130  0.70893692  0.47453928     0.33600
C1625       C  0.06895968  0.94705720  0.50747990    -0.20100
C1626       C  0.07088699  0.92842538  0.53229736     0.36100
C1627       C  0.09056485  0.90981886  0.53040911    -0.26100
C1628       C  0.10848799  0.90968458  0.50416908     0.02500
C1629       C  0.10703547  0.92892671  0.47968275     0.27400
C1630       C  0.08715327  0.94729322  0.48163583    -0.25200
N1631       N  0.05278844  0.92834448  0.55926855    -0.82600
H1632       H  0.09177061  0.89528145  0.54937579     0.13200
C1633       C  0.12859930  0.88942510  0.50333783     0.02500
N1634       N  0.12521170  0.93051439  0.45264566    -0.81200
H1635       H  0.08564441  0.96170702  0.46255181     0.18000
C1636       C  0.12737779  0.87042020  0.47888609    -0.26000
C1637       C  0.14612937  0.85080937  0.47761667     0.36000
C1638       C  0.16595243  0.85001934  0.50184361    -0.20000
C1639       C  0.16740937  0.86929056  0.52590715    -0.25300
C1640       C  0.14896829  0.88916391  0.52672299     0.27400
H1641       H  0.11188240  0.87108599  0.46064463     0.13100
N1642       N  0.14588368  0.83251204  0.45102236    -0.82600
H1643       H  0.18291168  0.86873637  0.54415367     0.18000
N1644       N  0.15086364  0.90921239  0.55097378    -0.81200
H1645       H  0.13138327  0.83714245  0.43384816     0.33600
H1646       H  0.14064496  0.81472260  0.46075396     0.38100
H1647       H  0.16700581  0.90622625  0.56634562     0.33600
H1648       H  0.15437853  0.92635704  0.53844672     0.30300
H1649       H  0.13505345  0.94802467  0.45468808     0.33600
H1650       H  0.13961027  0.91641631  0.45386507     0.30300
H1651       H  0.04315607  0.91065591  0.55939132     0.38200
H1652       H  0.06351771  0.92991631  0.58113897     0.33600
C1653       C  0.33966754  0.84278255  0.50115927    -0.20100
C1654       C  0.36612752  0.83650899  0.49412515     0.36100
C1655       C  0.38520466  0.85586295  0.49493007    -0.26100
C1656       C  0.37834154  0.88123794  0.50165598     0.02500
C1657       C  0.35219879  0.88773233  0.50825592     0.27400
C1658       C  0.33314048  0.86844546  0.50816985    -0.25200
N1659       N  0.37358765  0.81078391  0.48558526    -0.82600
H1660       H  0.40548005  0.85129793  0.48962426     0.13200
C1661       C  0.39874485  0.90103535  0.50154545     0.02500
N1662       N  0.34517881  0.91392745  0.51483932    -0.81200
H1663       H  0.31306047  0.87362698  0.51353067     0.18000
C1664       C  0.39935364  0.91867804  0.47564581    -0.26000
C1665       C  0.41800316  0.93822352  0.47502582     0.36000
C1666       C  0.43603071  0.94027515  0.50139068    -0.20000
C1667       C  0.43554777  0.92247204  0.52714684    -0.25300
C1668       C  0.41703685  0.90268075  0.52739768     0.27400
H1669       H  0.38533444  0.91708399  0.45566516     0.13100
N1670       N  0.41836966  0.95513586  0.44707894    -0.82600
H1671       H  0.44955716  0.92419585  0.54711502     0.18000
N1672       N  0.41653655  0.88436875  0.55378422    -0.81200
H1673       H  0.40131732  0.96617619  0.44795188     0.33600
H1674       H  0.43419423  0.96779112  0.44769960     0.38100
H1675       H  0.43154879  0.88814573  0.57065719     0.33600
H1676       H  0.39888836  0.88675745  0.56649325     0.30300
H1677       H  0.32503547  0.91553939  0.51899696     0.33600
H1678       H  0.35445687  0.91946167  0.53671353     0.30300
H1679       H  0.36511795  0.80652332  0.46274021     0.38200
H1680       H  0.39385262  0.80946986  0.48225007     0.33600
C1681       C  0.15558612  0.76393626  0.39578244    -0.20100
C1682       C  0.15797911  0.76782205  0.36131070     0.36100
C1683       C  0.13553756  0.76583167  0.34093658    -0.26100
C1684       C  0.11075746  0.76019240  0.35420360     0.02500
C1685       C  0.10816510  0.75747784  0.38857211     0.27400
C1686       C  0.13038925  0.75935319  0.40881988    -0.25200
N1687       N  0.18304858  0.77354872  0.34698107    -0.82600
H1688       H  0.13747628  0.76803335  0.31450029     0.13200
C1689       C  0.08785601  0.75505721  0.33221737     0.02500
N1690       N  0.08286599  0.75238138  0.40275655    -0.81200
H1691       H  0.12788235  0.75668155  0.43508590     0.18000
C1692       C  0.07577430  0.73093255  0.33382526    -0.26000
C1693       C  0.05334087  0.72528298  0.31524598     0.36000
C1694       C  0.04289191  0.74374681  0.29365564    -0.20000
C1695       C  0.05476676  0.76803808  0.29209843    -0.25300
C1696       C  0.07714642  0.77391765  0.31125643     0.27400
H1697       H  0.08367992  0.71638965  0.35002431     0.13100
N1698       N  0.04084718  0.70087197  0.31894576    -0.82600
H1699       H  0.04692023  0.78224479  0.27538268     0.18000
N1700       N  0.08893816  0.79888884  0.30959721    -0.81200
H1701       H  0.03566340  0.69873095  0.34372448     0.33600
H1702       H  0.05448123  0.68664549  0.31310291     0.38100
H1703       H  0.07877837  0.81047255  0.29295902     0.33600
H1704       H  0.08694281  0.80744349  0.33279318     0.30300
H1705       H  0.08421681  0.75053547  0.42835492     0.33600
H1706       H  0.07101306  0.76830358  0.39824288     0.30300
H1707       H  0.18884874  0.79151478  0.35581450     0.38200
H1708       H  0.18149070  0.77525857  0.32138294     0.33600
C1709       C  0.33591889  0.75337446  0.38986928    -0.20100
C1710       C  0.35638223  0.73562696  0.39532768     0.36100
C1711       C  0.37795770  0.73493879  0.37379191    -0.26100
C1712       C  0.37966971  0.75153576  0.34676612     0.02500
C1713       C  0.35899378  0.76887691  0.34075380     0.27400
C1714       C  0.33713713  0.76940132  0.36213495    -0.25200
N1715       N  0.35512580  0.71827359  0.42276680    -0.82600
H1716       H  0.39359658  0.72133716  0.37807657     0.13200
C1717       C  0.40319124  0.75020279  0.32493550     0.02500
N1718       N  0.36067406  0.78637427  0.31354565    -0.81200
H1719       H  0.32157006  0.78309311  0.35795606     0.18000
C1720       C  0.40009758  0.74361239  0.29163328    -0.26000
C1721       C  0.42190586  0.74042717  0.27078129     0.36000
C1722       C  0.44753448  0.74358284  0.28362378    -0.20000
C1723       C  0.45057434  0.75120386  0.31661138    -0.25300
C1724       C  0.42867786  0.75449689  0.33740844     0.27400
H1725       H  0.38054596  0.74045636  0.28202868     0.13100
N1726       N  0.41805838  0.73383808  0.23666030    -0.82600
H1727       H  0.47012688  0.75386335  0.32645039     0.18000
N1728       N  0.43218019  0.76198938  0.37124715    -0.81200
H1729       H  0.39809835  0.73242237  0.23116898     0.33600
H1730       H  0.42542613  0.74878308  0.22232181     0.38100
H1731       H  0.45207093  0.76434716  0.37662462     0.33600
H1732       H  0.42343172  0.77993175  0.37431504     0.30300
H1733       H  0.34404201  0.79800512  0.31262269     0.33600
H1734       H  0.37661281  0.79852692  0.31792468     0.30300
H1735       H  0.33902048  0.70619958  0.41906241     0.38200
H1736       H  0.37168826  0.70653189  0.42340903     0.33600
C1737       C  0.24795941  0.84933856  0.39292510    -0.20100
C1738       C  0.26300685  0.87181684  0.39802944     0.36100
C1739       C  0.26001506  0.89278167  0.37666655    -0.26100
C1740       C  0.24259559  0.89183940  0.35002275     0.02500
C1741       C  0.22775708  0.86945135  0.34445570     0.27400
C1742       C  0.23081871  0.84826386  0.36573177    -0.25200
N1743       N  0.28150561  0.87320452  0.42472049    -0.82600
H1744       H  0.27146529  0.91001432  0.38068063     0.13200
C1745       C  0.24063833  0.91466948  0.32835178     0.02500
N1746       N  0.20942334  0.86849502  0.31759137    -0.81200
H1747       H  0.21910422  0.83121487  0.36178410     0.18000
C1748       C  0.25585752  0.91590578  0.29960638    -0.26000
C1749       C  0.25814158  0.93887260  0.28171646     0.36000
C1750       C  0.24508319  0.96110350  0.29282922    -0.20000
C1751       C  0.22863047  0.95930956  0.32054018    -0.25300
C1752       C  0.22622462  0.93633347  0.33832562     0.27400
H1753       H  0.26692385  0.89925790  0.29182159     0.13100
N1754       N  0.27471855  0.93973058  0.25328040    -0.82600
H1755       H  0.21784828  0.97604561  0.32863069     0.18000
N1756       N  0.20977963  0.93506455  0.36703174    -0.81200
H1757       H  0.29354749  0.93414993  0.26037131     0.33600
H1758       H  0.26773818  0.92629391  0.23624062     0.38100
H1759       H  0.20059941  0.95267400  0.37118003     0.33600
H1760       H  0.19487475  0.92184102  0.36210870     0.30300
H1761       H  0.20007848  0.85066777  0.31678968     0.33600
H1762       H  0.19485260  0.88206915  0.32232790     0.30300
H1763       H  0.29614372  0.85968143  0.42007559     0.38200
H1764       H  0.29072814  0.89110121  0.42530365     0.33600
C1765       C  0.25071630  0.56123492  0.28923532    -0.20100
C1766       C  0.23011254  0.56662624  0.31171211     0.36100
C1767       C  0.23032370  0.58927929  0.33064000    -0.26100
C1768       C  0.25045946  0.60734442  0.32748276     0.02500
C1769       C  0.27042649  0.60297813  0.30421882     0.27400
C1770       C  0.27044760  0.58011799  0.28549018    -0.25200
N1771       N  0.20874697  0.54904959  0.31544027    -0.82600
H1772       H  0.21466526  0.59270973  0.34813705     0.13200
C1773       C  0.25049304  0.63062959  0.34892580     0.02500
N1774       N  0.29061874  0.62188108  0.29965980    -0.81200
H1775       H  0.28603577  0.57767185  0.26795324     0.18000
C1776       C  0.26825375  0.63224608  0.37525004    -0.26000
C1777       C  0.26795295  0.65324562  0.39716152     0.36000
C1778       C  0.24981464  0.67337214  0.39227210    -0.20000
C1779       C  0.23259294  0.67211420  0.36532506    -0.25300
C1780       C  0.23252983  0.65076481  0.34386361     0.27400
H1781       H  0.28203844  0.61677498  0.37908014     0.13100
N1782       N  0.28587382  0.65414581  0.42453478    -0.82600
H1783       H  0.21855641  0.68739401  0.36170515     0.18000
N1784       N  0.21401149  0.64919132  0.31725986    -0.81200
H1785       H  0.29777898  0.63787236  0.42482264     0.33600
H1786       H  0.29829414  0.66985816  0.42108421     0.38100
H1787       H  0.20189665  0.66531767  0.31710808     0.33600
H1788       H  0.22458461  0.64947918  0.29519343     0.30300
H1789       H  0.30392034  0.61594701  0.28160197     0.33600
H1790       H  0.28171194  0.63848601  0.29070008     0.30300
H1791       H  0.19140233  0.55874458  0.30986715     0.38200
H1792       H  0.20791774  0.54343515  0.34013457     0.33600
O1793       O  0.74743984  0.21801247  0.40338226    -0.80400
O1794       O  0.74606447  0.21169346  0.59214511    -0.81900
O1795       O  0.78394819  0.18285010  0.49780101    -0.78900
O1796       O  0.69910468  0.19005371  0.49616983    -0.77300
O1797       O  0.66937193  0.22257005  0.49873401    -0.79100
O1798       O  0.81760789  0.21156303  0.49727260    -0.80100
O1799       O  0.74207642  0.18382276  0.54902287    -0.81400
O1800       O  0.74683430  0.18759371  0.44399860    -0.81700
Eu1801     Eu  0.74351748  0.20775882  0.49779606     2.39200
O1802       O  0.71939806  0.23381145  0.53363002    -0.89200
O1803       O  0.77082663  0.23239034  0.46398858    -0.92800
C1804       C  0.74852280  0.19460346  0.41370716     1.01900
C1805       C  0.74365249  0.18870572  0.58007301     1.01700
C1806       C  0.80849112  0.18849664  0.49750718     1.01700
C1807       C  0.67545587  0.19870771  0.49675363     0.99500
H1808       H  0.78307030  0.21849620  0.54491012     0.29300
O1809       O  0.77260185  0.23027133  0.53218789    -1.01600
H1810       H  0.70676974  0.22541283  0.45103835     0.29300
O1811       O  0.71843399  0.23533932  0.46480566    -1.04100
O1812       O  0.75097051  0.29867493  0.59693192    -0.81300
O1813       O  0.74872389  0.30413004  0.40702957    -0.80900
O1814       O  0.82300774  0.25516613  0.55035152    -0.79300
O1815       O  0.67369126  0.26049756  0.55511013    -0.82700
O1816       O  0.67183568  0.26461845  0.44766815    -0.80500
O1817       O  0.82000116  0.25316235  0.44258611    -0.79200
O1818       O  0.79497756  0.32738575  0.50126674    -0.80700
O1819       O  0.71056143  0.33396461  0.50460777    -0.82600
O1820       O  0.82496974  0.29528916  0.49726756    -0.79300
O1821       O  0.67669437  0.30560645  0.50375121    -0.82000
O1822       O  0.79353302  0.25501662  0.59292858    -0.77700
O1823       O  0.78894561  0.25843485  0.40242742    -0.77800
O1824       O  0.70163848  0.26241680  0.40582810    -0.77400
O1825       O  0.70452035  0.25787774  0.59601754    -0.80900
O1826       O  0.75304851  0.32909333  0.55650831    -0.80300
O1827       O  0.75177200  0.33261259  0.44978260    -0.78700
Eu1828     Eu  0.74839441  0.25623489  0.56882319     2.39800
Eu1829     Eu  0.74601971  0.26044484  0.43099374     2.39600
Eu1830     Eu  0.79983752  0.25510479  0.49776403     2.38400
Eu1831     Eu  0.69474332  0.26212074  0.50086951     2.39900
Eu1832     Eu  0.75092571  0.30922354  0.50203631     2.39800
O1833       O  0.72197621  0.28708770  0.46711951    -0.93100
O1834       O  0.77580372  0.28107165  0.53420875    -0.92000
C1835       C  0.75278829  0.32220543  0.58699140     1.02100
C1836       C  0.75095245  0.32714688  0.41876790     1.00800
C1837       C  0.81724471  0.25538764  0.58127985     1.00200
C1838       C  0.68048401  0.25908474  0.58570194     1.02200
C1839       C  0.67783352  0.26403376  0.41672277     1.01100
C1840       C  0.81286033  0.25506165  0.41211544     1.00000
C1841       C  0.81869315  0.31918525  0.49887250     1.00000
C1842       C  0.68596640  0.32861905  0.50473956     1.02600
H1843       H  0.78644575  0.29375400  0.45230050     0.30000
O1844       O  0.77493144  0.28334918  0.46563768    -1.05300
H1845       H  0.71334400  0.29566080  0.55002525     0.32100
O1846       O  0.72343980  0.28452577  0.53583492    -1.07800
N1847       N  0.53813604  0.01262417  0.49281290    -0.36900
N1848       N  0.99491567  0.04810646  0.49556566    -0.57400
N1849       N  0.95744764  0.00698513  0.49466330    -0.36800
N1850       N  0.00091692  0.46923976  0.49630316    -0.57400
C1851       C  0.55057117  0.03506773  0.49799585     0.26700
C1852       C  0.55322779  0.49222498  0.50739898     0.26700
C1853       C  0.94157325  0.02715618  0.50062858     0.26700
C1854       C  0.94486709  0.48449336  0.49775969     0.26700
C1855       C  0.51432634  0.06422726  0.48266821     0.35400
C1856       C  0.97329287  0.06146194  0.48748300     0.35400
C1857       C  0.52314555  0.45679646  0.49254166     0.35400
C1858       C  0.98094966  0.45308112  0.48962209     0.35400
C1859       C  0.57506578  0.03055430  0.51164501    -0.22100
C1860       C  0.57607632  0.50163858  0.52142883    -0.22100
C1861       C  0.91764898  0.01854835  0.51243250    -0.22100
C1862       C  0.91916748  0.49048086  0.50561430    -0.22100
C1863       C  0.50425043  0.08695168  0.47042626    -0.23200
C1864       C  0.98003729  0.08557839  0.47608392    -0.23200
C1865       C  0.51761038  0.43197383  0.48248701    -0.23200
C1866       C  0.99042644  0.42897115  0.48174795    -0.23200
C1867       C  0.54105384  0.05921529  0.48815778    -0.18500
C1868       C  0.54822821  0.46619075  0.50055141    -0.18500
C1869       C  0.95423474  0.45934225  0.49260590    -0.18500
C1870       C  0.94761824  0.05287807  0.49336567    -0.18500
H1871       H  0.58979696  0.04461009  0.51818997     0.14400
H1872       H  0.59268358  0.49074005  0.53019205     0.14400
H1873       H  0.90074700  0.02998712  0.51893703     0.14400
H1874       H  0.90306727  0.47733372  0.50958479     0.14400
H1875       H  0.51507970  0.10320337  0.46101684     0.12700
H1876       H  0.96696695  0.10074485  0.46842546     0.12700
H1877       H  0.53137360  0.41662962  0.47786972     0.12700
H1878       H  0.97923511  0.41197807  0.47564661     0.12700
H1879       H  0.52095488  0.01022750  0.47932306     0.25900
H1880       H  0.97512310  0.00740801  0.48192967     0.25900
O1881       O  0.00208548  0.44668667  0.90261735    -0.80400
O1882       O  0.99899606  0.44394872  0.09109778    -0.81900
O1883       O  0.54462439  0.41650112  0.99756079    -0.78900
O1884       O  0.96089109  0.41420210  0.99569257    -0.77300
O1885       O  0.92755965  0.44307520  0.99495171    -0.79100
O1886       O  0.57532030  0.44838175  0.99808307    -0.80100
O1887       O  0.00207989  0.41444599  0.04965356    -0.81400
O1888       O  0.00313008  0.41627118  0.94306338    -0.81700
Eu1889     Eu  0.00229519  0.43733783  0.99687088     2.39200
O1890       O  0.97365383  0.46088836  0.03047092    -0.89200
O1891       O  0.52774576  0.46304379  0.96383110    -0.92800
C1892       C  0.00242808  0.42317060  0.91257607     1.01900
C1893       C  0.00043555  0.42062437  0.08044181     1.01700
C1894       C  0.56849872  0.42454273  0.99736392     1.01700
C1895       C  0.93642253  0.41994637  0.99501781     0.99500
H1896       H  0.53693804  0.45300515  0.04701632     0.29300
O1897       O  0.52590289  0.46332411  0.03300493    -1.01600
H1898       H  0.96527015  0.45095451  0.94865051     0.29300
O1899       O  0.97555498  0.46215852  0.96254622    -1.04100
O1900       O  0.99559135  0.02957245  0.10007545    -0.81300
O1901       O  0.99779613  0.03348838  0.91086562    -0.80900
O1902       O  0.57214611  0.49178687  0.05365281    -0.79300
O1903       O  0.92317694  0.48392337  0.04823391    -0.82700
O1904       O  0.92674077  0.48436871  0.94175499    -0.80500
O1905       O  0.57510804  0.49039833  0.94750026    -0.79200
O1906       O  0.54034711  0.06283992  0.00273357    -0.80700
O1907       O  0.95277431  0.05796405  0.00371679    -0.82600
O1908       O  0.57264115  0.03273611  0.00509980    -0.79300
O1909       O  0.92268916  0.02552319  0.00205407    -0.82000
O1910       O  0.54055104  0.49095565  0.09364900    -0.77700
O1911       O  0.54560727  0.98935955  0.90911761    -0.77800
O1912       O  0.95642394  0.98738810  0.90792625    -0.77400
O1913       O  0.95276663  0.48493653  0.09060986    -0.80900
O1914       O  0.99570992  0.06022173  0.05968803    -0.80300
O1915       O  0.99704413  0.06259969  0.95317005    -0.78700
Eu1916     Eu  0.99793253  0.48721411  0.06655037     2.39800
Eu1917     Eu  0.00140412  0.48936303  0.92933141     2.39600
Eu1918     Eu  0.55176192  0.48966068  0.99942962     2.38400
Eu1919     Eu  0.94710289  0.48597075  0.99606804     2.39900
Eu1920     Eu  0.99652556  0.03934740  0.00545315     2.39800
O1921       O  0.97176686  0.01289593  0.97025940    -0.93100
O1922       O  0.52535698  0.01521371  0.03750202    -0.92000
C1923       C  0.99543945  0.05307483  0.09009328     1.02100
C1924       C  0.99747560  0.05675939  0.92226531     1.00800
C1925       C  0.56473662  0.49197999  0.08400814     1.00200
C1926       C  0.92901525  0.48371978  0.07915730     1.02200
C1927       C  0.93249236  0.98454049  0.91803748     1.01100
C1928       C  0.56936483  0.99012875  0.92040350     1.00000
C1929       C  0.56456708  0.05613392  0.00402082     1.00000
C1930       C  0.92910251  0.04943631  0.00254343     1.02600
H1931       H  0.53742110  0.02629742  0.95623432     0.30000
O1932       O  0.52656094  0.01525328  0.96952368    -1.05300
H1933       H  0.95911989  0.02198962  0.05149205     0.32100
O1934       O  0.97091231  0.01188760  0.03810647    -1.07800
N1935       N  0.79018880  0.23497506  0.98256476    -0.36900
N1936       N  0.75204800  0.27602572  0.98455597    -0.57400
N1937       N  0.71004551  0.23916282  0.97953347    -0.36800
N1938       N  0.74828572  0.19826476  0.97836474    -0.57400
C1939       C  0.80532705  0.25475530  0.99258867     0.26700
C1940       C  0.80316260  0.21314107  0.98981426     0.26700
C1941       C  0.69688659  0.26020272  0.98964098     0.26700
C1942       C  0.69489308  0.21867190  0.98661403     0.26700
C1943       C  0.77409023  0.29000107  0.98084777     0.35400
C1944       C  0.73180232  0.29216720  0.97963750     0.35400
C1945       C  0.76866783  0.18250558  0.97260480     0.35400
C1946       C  0.72650548  0.18485194  0.97094184     0.35400
C1947       C  0.82836671  0.24545126  0.00610349    -0.22100
C1948       C  0.82698499  0.21911509  0.00438865    -0.22100
C1949       C  0.67294429  0.25305274  0.00290569    -0.22100
C1950       C  0.67173647  0.22675815  0.00114697    -0.22100
C1951       C  0.76784150  0.31517949  0.97342489    -0.23200
C1952       C  0.74096564  0.31654953  0.97267767    -0.23200
C1953       C  0.75985383  0.15898003  0.96115756    -0.23200
C1954       C  0.73303147  0.16050241  0.95999933    -0.23200
C1955       C  0.79950957  0.28090366  0.98774313    -0.18500
C1956       C  0.79466576  0.18817261  0.98150079    -0.18500
C1957       C  0.70102798  0.19302677  0.97886653    -0.18500
C1958       C  0.70538909  0.28568039  0.98527909    -0.18500
H1959       H  0.84458047  0.25649413  0.01587082     0.14400
H1960       H  0.84195858  0.20590782  0.01251058     0.14400
H1961       H  0.65788913  0.26547307  0.01275757     0.14400
H1962       H  0.65557294  0.21496894  0.00940900     0.14400
H1963       H  0.78121441  0.33106057  0.96999763     0.12700
H1964       H  0.72949999  0.33367036  0.96860415     0.12700
H1965       H  0.77145174  0.14222580  0.95536607     0.12700
H1966       H  0.71979463  0.14513916  0.95325143     0.12700
H1967       H  0.77346532  0.23642892  0.96805644     0.25900
H1968       H  0.72705407  0.23898325  0.96539260     0.25900
C1969       C  0.99717667  0.21567001  0.22634746     0.86200
C1970       C  0.52209728  0.22102432  0.24657342    -0.54000
C1971       C  0.52125979  0.24231585  0.26603282     0.09200
C1972       C  0.99501926  0.25852680  0.26021195     0.20100
C1973       C  0.97240584  0.21857469  0.24735269    -0.54700
C1974       C  0.97088613  0.24098559  0.26468138     0.09300
C1975       C  0.99799231  0.24022776  0.20514155    -0.54200
C1976       C  0.99623922  0.26252829  0.22266554     0.09800
H1977       H  0.53866192  0.20801249  0.24689054     0.14400
H1978       H  0.99401126  0.27665562  0.27454250     0.00100
H1979       H  0.95692790  0.20426931  0.24773984     0.14700
H1980       H  0.00040959  0.24069352  0.17866729     0.14500
C1981       C  0.75451080  0.03314777  0.27514449     0.86200
C1982       C  0.77661236  0.02888367  0.24981593    -0.54000
C1983       C  0.77130893  0.50572616  0.22849332     0.09200
C1984       C  0.74723546  0.48910489  0.23748392     0.20100
C1985       C  0.72940630  0.03100971  0.25440797    -0.54700
C1986       C  0.72317612  0.50654065  0.23157241     0.09300
C1987       C  0.74994022  0.50928798  0.29153311    -0.54200
C1988       C  0.74873224  0.48616698  0.27541765     0.09800
H1989       H  0.79305976  0.04149617  0.24555817     0.14400
H1990       H  0.74610825  0.47068862  0.22405456     0.00100
H1991       H  0.71477131  0.04606850  0.25359186     0.14700
H1992       H  0.75136106  0.51089181  0.31816322     0.14500
C1993       C  0.99587426  0.21670426  0.77711654     0.86200
C1994       C  0.97374011  0.21753873  0.75143488    -0.54000
C1995       C  0.97396120  0.23872637  0.73172613     0.09200
C1996       C  0.99676754  0.25722200  0.73897476     0.20100
C1997       C  0.52241102  0.21854068  0.75461630    -0.54700
C1998       C  0.52216667  0.23978587  0.73490209     0.09300
C1999       C  0.99362715  0.24252166  0.79564144    -0.54200
C2000       C  0.99399500  0.26360998  0.77579316     0.09800
H2001       H  0.95862777  0.20292247  0.74971908     0.14400
H2002       H  0.99675107  0.27446863  0.72310104     0.00100
H2003       H  0.53891835  0.20546896  0.75549427     0.14700
H2004       H  0.99284041  0.24475595  0.82211936     0.14500
C2005       C  0.75188509  0.02952432  0.72607460     0.86200
C2006       C  0.72755769  0.02759230  0.74811326    -0.54000
C2007       C  0.72774341  0.50705813  0.76589093     0.09200
C2008       C  0.75121640  0.48867218  0.76139394     0.20100
C2009       C  0.77506226  0.02724086  0.75043681    -0.54700
C2010       C  0.77548070  0.50554135  0.76773799     0.09300
C2011       C  0.75317192  0.50409796  0.70471409    -0.54200
C2012       C  0.75199438  0.48273689  0.72414408     0.09800
H2013       H  0.71213957  0.04188746  0.74755305     0.14400
H2014       H  0.75056186  0.47140988  0.77724893     0.00100
H2015       H  0.79130230  0.04045230  0.75191503     0.14700
H2016       H  0.75379353  0.50301873  0.67798472     0.14500
C2017       C  0.69921058  0.49971661  0.21211002    -0.20100
C2018       C  0.70038281  0.48696909  0.18142006     0.36100
C2019       C  0.67748339  0.48411152  0.16239698    -0.26100
C2020       C  0.65346258  0.49428044  0.17309893     0.02500
C2021       C  0.65549099  0.00723740  0.20989611     0.27400
C2022       C  0.67829796  0.00964741  0.22919722    -0.25200
N2023       N  0.72485463  0.47808123  0.16858836    -0.82600
H2024       H  0.67865627  0.47479540  0.13853304     0.13200
C2025       C  0.63041039  0.49396004  0.15075046     0.02500
N2026       N  0.63057308  0.01515731  0.22286598    -0.81200
H2027       H  0.67674608  0.01717819  0.25403639     0.18000
C2028       C  0.60759452  0.48060795  0.15973932    -0.26000
C2029       C  0.58539011  0.48027229  0.13903695     0.36000
C2030       C  0.58614166  0.49357363  0.10876524    -0.20000
C2031       C  0.61211001  0.00728464  0.10380213    -0.25300
C2032       C  0.63400134  0.00930555  0.12467778     0.27400
H2033       H  0.60728660  0.47016639  0.18278355     0.13100
N2034       N  0.56248445  0.46597728  0.14825633    -0.82600
H2035       H  0.61240188  0.01719889  0.08036942     0.18000
N2036       N  0.65618935  0.02457443  0.11507031    -0.81200
H2037       H  0.56505840  0.45755591  0.17138487     0.33600
H2038       H  0.56040760  0.45096380  0.13134339     0.38100
H2039       H  0.65319662  0.03264612  0.09181333     0.33600
H2040       H  0.65768840  0.03981766  0.13174037     0.30300
H2041       H  0.63254478  0.02168223  0.24713367     0.33600
H2042       H  0.62420920  0.03078253  0.20895070     0.30300
H2043       H  0.72816167  0.48712194  0.14600159     0.38200
H2044       H  0.72319930  0.45840263  0.16418892     0.33600
C2045       C  0.90650787  0.48267610  0.10276604    -0.20100
C2046       C  0.88275444  0.47003490  0.09455592     0.36100
C2047       C  0.86099806  0.47185191  0.11584868    -0.26100
C2048       C  0.86199754  0.48642589  0.14498787     0.02500
C2049       C  0.88726660  0.00120448  0.15857489     0.27400
C2050       C  0.90937745  0.99893342  0.13814542    -0.25200
N2051       N  0.88072638  0.45541372  0.06455629    -0.82600
H2052       H  0.84298283  0.46202057  0.10947124     0.13200
C2053       C  0.83774589  0.48944118  0.16571202     0.02500
N2054       N  0.88695315  0.01952602  0.18510940    -0.81200
H2055       H  0.92623490  0.01114428  0.14241668     0.18000
C2056       C  0.83889643  0.48467629  0.19978793    -0.26000
C2057       C  0.81721797  0.48930807  0.22047294     0.36000
C2058       C  0.79333573  0.49766332  0.20673761    -0.20000
C2059       C  0.79565176  0.00329114  0.17744937    -0.25300
C2060       C  0.81779167  0.99908995  0.15751996     0.27400
H2061       H  0.85704676  0.47790346  0.21046416     0.13100
N2062       N  0.81947630  0.48591008  0.25552553    -0.82600
H2063       H  0.77825405  0.01186035  0.16695740     0.18000
N2064       N  0.81742322  0.00586442  0.12318767    -0.81200
H2065       H  0.83807314  0.47905791  0.26163983     0.33600
H2066       H  0.81788139  0.50394339  0.26660652     0.38100
H2067       H  0.79912758  0.01322883  0.11661530     0.33600
H2068       H  0.83099585  0.02064688  0.11976400     0.30300
H2069       H  0.90481756  0.02930200  0.18643565     0.33600
H2070       H  0.87269121  0.03322052  0.17961745     0.30300
H2071       H  0.89370879  0.44001613  0.06636267     0.38200
H2072       H  0.86197854  0.44755108  0.06200544     0.33600
C2073       C  0.99431651  0.28785647  0.20614115    -0.20100
C2074       C  0.97686353  0.29163415  0.17958831     0.36100
C2075       C  0.97727957  0.31474041  0.16214294    -0.26100
C2076       C  0.99482474  0.33434011  0.17061492     0.02500
C2077       C  0.51859707  0.31974975  0.16637120     0.27400
C2078       C  0.51882764  0.29661279  0.18400413    -0.25200
N2079       N  0.95865751  0.27201961  0.17019048    -0.82600
H2080       H  0.96428858  0.31715145  0.14124172     0.13200
C2081       C  0.99729131  0.35675399  0.14832899     0.02500
N2082       N  0.53925793  0.32563356  0.14345721    -0.81200
H2083       H  0.53417050  0.28274922  0.17934182     0.18000
C2084       C  0.50440990  0.38401920  0.16145745    -0.26000
C2085       C  0.50409237  0.40560947  0.14066744     0.36000
C2086       C  0.99993994  0.39919988  0.10488968    -0.20000
C2087       C  0.00744326  0.37450388  0.09446480    -0.25300
C2088       C  0.00626832  0.35338366  0.11579069     0.27400
H2089       H  0.51189824  0.38570430  0.18636799     0.13100
N2090       N  0.51282712  0.42999920  0.15298603    -0.82600
H2091       H  0.01430435  0.37154189  0.06947715     0.18000
N2092       N  0.01417151  0.32839922  0.10457871    -0.81200
H2093       H  0.51981733  0.42826030  0.17710650     0.33600
H2094       H  0.49642924  0.44191625  0.15444551     0.38100
H2095       H  0.02030193  0.32905597  0.08001014     0.33600
H2096       H  0.03047312  0.32292821  0.11847863     0.30300
H2097       H  0.55323925  0.31102628  0.14319779     0.33600
H2098       H  0.53129318  0.32626371  0.11976533     0.30300
H2099       H  0.96227627  0.26713177  0.14559810     0.38200
H2100       H  0.93977807  0.27968281  0.17155256     0.33600
C2101       C  0.99627209  0.07371654  0.11492247    -0.20100
C2102       C  0.97405609  0.08079681  0.13333774     0.36100
C2103       C  0.97496205  0.10288371  0.15327365    -0.26100
C2104       C  0.99799562  0.11752040  0.15567623     0.02500
C2105       C  0.51945997  0.11743882  0.12699676     0.27400
C2106       C  0.51980956  0.09485070  0.10815935    -0.25200
N2107       N  0.95045045  0.06602944  0.13117361    -0.82600
H2108       H  0.95751198  0.10894893  0.16633536     0.13200
C2109       C  0.99751877  0.14233295  0.17348930     0.02500
N2110       N  0.54110798  0.13509159  0.12571125    -0.81200
H2111       H  0.53573122  0.09146848  0.09105208     0.18000
C2112       C  0.50446044  0.14642172  0.19998861    -0.26000
C2113       C  0.50486206  0.16912103  0.21850558     0.36000
C2114       C  0.99743977  0.18990307  0.20776917    -0.20000
C2115       C  0.99265970  0.18860880  0.17349537    -0.25300
C2116       C  0.99296543  0.16524056  0.15626623     0.27400
H2117       H  0.51028275  0.12860311  0.21149783     0.13100
N2118       N  0.51139084  0.16775874  0.25279912    -0.82600
H2119       H  0.98778730  0.20548135  0.15964545     0.18000
N2120       N  0.98789807  0.16460475  0.12136860    -0.81200
H2121       H  0.53005468  0.15968906  0.25489328     0.33600
H2122       H  0.49804518  0.15547737  0.26428611     0.38100
H2123       H  0.98400927  0.18298658  0.11248290     0.33600
H2124       H  0.00495840  0.15850973  0.10951190     0.30300
H2125       H  0.55574153  0.12819656  0.11001554     0.33600
H2126       H  0.53451516  0.15223567  0.11549109     0.30300
H2127       H  0.94567489  0.05978870  0.15490190     0.38200
H2128       H  0.93543345  0.07807646  0.12310773     0.33600
C2129       C  0.58928356  0.40478612  0.99629784    -0.20100
C2130       C  0.61179395  0.40760046  0.97638093     0.36100
C2131       C  0.63051877  0.38788123  0.97552118    -0.26100
C2132       C  0.62712133  0.36536313  0.99386917     0.02500
C2133       C  0.60470825  0.36258347  0.01388750     0.27400
C2134       C  0.58596648  0.38226479  0.01473355    -0.25200
N2135       N  0.61527768  0.43013731  0.95654858    -0.82600
H2136       H  0.64782451  0.38997043  0.96028759     0.13200
C2137       C  0.64711483  0.34480162  0.99150354     0.02500
N2138       N  0.60099253  0.33974507  0.03307212    -0.81200
H2139       H  0.56867810  0.38006899  0.02997972     0.18000
C2140       C  0.66053112  0.33702330  0.01999351    -0.26000
C2141       C  0.67999622  0.31804417  0.01841314     0.36000
C2142       C  0.68578240  0.30648620  0.98786579    -0.20000
C2143       C  0.67249095  0.31420939  0.95941609    -0.25300
C2144       C  0.65317021  0.33328797  0.96089313     0.27400
H2145       H  0.65600485  0.34603302  0.04340008     0.13100
N2146       N  0.69372836  0.31021662  0.04762450    -0.82600
H2147       H  0.67712597  0.30515090  0.93606837     0.18000
N2148       N  0.63949578  0.34087601  0.93153065    -0.81200
H2149       H  0.68690894  0.32034303  0.06816516     0.33600
H2150       H  0.71341888  0.31525681  0.04467918     0.38100
H2151       H  0.64652421  0.33081386  0.91104629     0.33600
H2152       H  0.61984441  0.33566307  0.93437522     0.30300
H2153       H  0.58362190  0.34082705  0.04666391     0.33600
H2154       H  0.59882157  0.32440996  0.01666530     0.30300
H2155       H  0.60028970  0.43037976  0.93897802     0.38200
H2156       H  0.63290011  0.42921139  0.94346247     0.33600
C2157       C  0.82096283  0.29986988  0.99077176    -0.20100
C2158       C  0.82546695  0.31378564  0.02023171     0.36100
C2159       C  0.84466853  0.33294985  0.02057609    -0.26100
C2160       C  0.85937175  0.33851542  0.99228227     0.02500
C2161       C  0.85536271  0.32417292  0.96320106     0.27400
C2162       C  0.83614767  0.30494505  0.96277309    -0.25200
N2163       N  0.81119263  0.30891866  0.05013846    -0.82600
H2164       H  0.84813651  0.34363955  0.04310976     0.13200
C2165       C  0.87893536  0.35941749  0.99339890     0.02500
N2166       N  0.87058101  0.32945032  0.93416765    -0.81200
H2167       H  0.83255455  0.29419144  0.94032546     0.18000
C2168       C  0.90523167  0.35372717  0.98709642    -0.26000
C2169       C  0.92448055  0.37291461  0.98752120     0.36000
C2170       C  0.91713248  0.39860006  0.99445668    -0.20000
C2171       C  0.89060829  0.40413305  0.00064730    -0.27900
C2172       C  0.87147007  0.38484391  0.00018084     0.27400
H2173       H  0.91077477  0.33407582  0.98202999     0.13100
N2174       N  0.95122200  0.36626151  0.98035065    -0.82600
H2175       H  0.88463577  0.42363208  0.00575965     0.18000
N2176       N  0.84443848  0.39099827  0.00617623    -0.81200
H2177       H  0.95255170  0.34729001  0.97219490     0.33600
H2178       H  0.96160271  0.36704379  0.00255160     0.38100
H2179       H  0.84226569  0.41055180  0.01110589     0.33600
H2180       H  0.83406400  0.38726059  0.98446213     0.30300
H2181       H  0.86533754  0.31704730  0.91498139     0.33600
H2182       H  0.86593200  0.34796201  0.92636996     0.30300
H2183       H  0.79789896  0.29386187  0.04740601     0.38200
H2184       H  0.80024004  0.32529755  0.05556362     0.33600
C2185       C  0.90783148  0.06850815  0.00104824    -0.20100
C2186       C  0.91036676  0.09281577  0.01620658     0.36100
C2187       C  0.89038423  0.11091417  0.01222990    -0.26100
C2188       C  0.86784979  0.10507812  0.99403655     0.02500
C2189       C  0.86481299  0.08064689  0.97981266     0.27400
C2190       C  0.88493647  0.06257354  0.98333629    -0.25200
N2191       N  0.93300817  0.09894889  0.03584174    -0.82600
H2192       H  0.89231781  0.12971907  0.02337031     0.13200
C2193       C  0.84770427  0.12503570  0.99031390     0.02500
N2194       N  0.84136728  0.07437545  0.96188926    -0.81200
H2195       H  0.88291273  0.04393794  0.97177029     0.18000
C2196       C  0.84514777  0.13764197  0.96002461    -0.26000
C2197       C  0.82797290  0.15845609  0.95667260     0.36000
C2198       C  0.81332718  0.16661831  0.98416015    -0.20000
C2199       C  0.81533792  0.15353258  0.01416794    -0.25300
C2200       C  0.83238889  0.13265396  0.01747059     0.27400
H2201       H  0.85694774  0.13152311  0.93924729     0.13100
N2202       N  0.82503915  0.17117306  0.92551980    -0.82600
H2203       H  0.80354414  0.15966286  0.03494397     0.18000
N2204       N  0.83439820  0.11917860  0.04822023    -0.81200
H2205       H  0.83695094  0.16259986  0.90767669     0.33600
H2206       H  0.83176071  0.18997218  0.92840003     0.38100
H2207       H  0.82182319  0.12720179  0.06576147     0.33600
H2208       H  0.82789966  0.10042424  0.04418092     0.30300
H2209       H  0.84230737  0.05563628  0.95279805     0.33600
H2210       H  0.82577313  0.07484707  0.97859118     0.30300
H2211       H  0.93292862  0.08679613  0.05628827     0.38200
H2212       H  0.93178966  0.11763958  0.04504201     0.33600
C2213       C  0.58460434  0.07659402  0.00292547    -0.20100
C2214       C  0.57873500  0.10230101  0.01104457     0.36100
C2215       C  0.59772074  0.12131695  0.00637301    -0.26100
C2216       C  0.62263809  0.11500696  0.99460535     0.02500
C2217       C  0.62913483  0.08932107  0.98817639     0.27400
C2218       C  0.61004492  0.07035580  0.99246323    -0.25200
N2219       N  0.55391383  0.10912203  0.02496869    -0.82600
H2220       H  0.59313368  0.14105261  0.01237530     0.13200
C2221       C  0.64218054  0.13538003  0.99034983     0.02500
N2222       N  0.65509927  0.08266444  0.97743910    -0.81200
H2223       H  0.61505875  0.05064923  0.98730647     0.18000
C2224       C  0.66270209  0.13716537  0.01307793    -0.26000
C2225       C  0.68187699  0.15615810  0.00989738     0.36000
C2226       C  0.68057551  0.17326535  0.98314693    -0.20000
C2227       C  0.65992419  0.17161932  0.96047342    -0.25300
C2228       C  0.64056568  0.15269452  0.96386102     0.27400
H2229       H  0.66360120  0.12377377  0.03341372     0.13100
N2230       N  0.70273906  0.15820463  0.03357744    -0.82600
H2231       H  0.65910376  0.18497111  0.94009617     0.18000
N2232       N  0.61938550  0.15084988  0.94061147    -0.81200
H2233       H  0.70095747  0.14402071  0.05158409     0.33600
H2234       H  0.70069559  0.17579757  0.04567746     0.38100
H2235       H  0.62097507  0.16518487  0.92277078     0.33600
H2236       H  0.62122716  0.13335354  0.92822802     0.30300
H2237       H  0.65669068  0.06287417  0.97394834     0.33600
H2238       H  0.65811799  0.09109575  0.95440435     0.30300
H2239       H  0.54520607  0.12276128  0.00968416     0.38200
H2240       H  0.55733846  0.11771897  0.04787748     0.33600
C2241       C  0.91256516  0.48302208  0.88672388    -0.20100
C2242       C  0.88899568  0.96705784  0.89842350     0.36100
C2243       C  0.86681187  0.96936768  0.87798544    -0.26100
C2244       C  0.86784003  0.48582959  0.84590532     0.02500
C2245       C  0.89027112  0.50062104  0.83853998     0.27400
C2246       C  0.91249284  0.49904657  0.85902542    -0.25200
N2247       N  0.88927096  0.94849702  0.92456427    -0.82600
H2248       H  0.84966017  0.95772987  0.88284724     0.13200
C2249       C  0.84285419  0.48971425  0.82785200     0.02500
N2250       N  0.89006512  0.51763787  0.81074980    -0.81200
H2251       H  0.92926153  0.51124347  0.85428953     0.18000
C2252       C  0.82993841  0.01537748  0.83233303    -0.26000
C2253       C  0.80708271  0.02026869  0.81397808     0.36000
C2254       C  0.79668992  0.49952086  0.79168525    -0.20000
C2255       C  0.80760685  0.47488018  0.79212298    -0.25300
C2256       C  0.83078498  0.46981904  0.80976202     0.27400
H2257       H  0.83886098  0.03071744  0.84648294     0.13100
N2258       N  0.79506004  0.04513329  0.81537946    -0.82600
H2259       H  0.79877414  0.45985067  0.77749944     0.18000
N2260       N  0.84251353  0.44482781  0.80860400    -0.81200
H2261       H  0.80558689  0.05736333  0.83098012     0.33600
H2262       H  0.77652046  0.04286366  0.82594691     0.38100
H2263       H  0.83121102  0.43238015  0.79420044     0.33600
H2264       H  0.86060846  0.44661436  0.79674720     0.30300
H2265       H  0.90795194  0.52729521  0.80881191     0.33600
H2266       H  0.88819569  0.50640382  0.78949428     0.30300
H2267       H  0.87164453  0.93828322  0.92522289     0.38200
H2268       H  0.90398238  0.93521279  0.91918450     0.33600
C2269       C  0.59295842  0.49384138  0.89414382    -0.20100
C2270       C  0.61726240  0.50364330  0.90595223     0.36100
C2271       C  0.63888625  0.50490929  0.88470124    -0.26100
C2272       C  0.63550142  0.99255977  0.85346574     0.02500
C2273       C  0.61250599  0.97896355  0.84454419     0.27400
C2274       C  0.59094541  0.97831601  0.86650294    -0.25200
N2275       N  0.61999674  0.51264772  0.93936162    -0.82600
H2276       H  0.65744375  0.51208244  0.89389828     0.13200
C2277       C  0.65840555  0.99574633  0.83070048     0.02500
N2278       N  0.61094282  0.96622624  0.81316104    -0.81200
H2279       H  0.57349682  0.96763422  0.85989476     0.18000
C2280       C  0.67094727  0.47789942  0.81481198    -0.26000
C2281       C  0.69319113  0.47957490  0.79443028     0.36000
C2282       C  0.70551914  0.50348930  0.78949961    -0.20000
C2283       C  0.69179664  0.02286623  0.80562522    -0.25300
C2284       C  0.66912372  0.02032916  0.82490254     0.27400
H2285       H  0.66165997  0.45944437  0.81846287     0.13100
N2286       N  0.70255900  0.45705493  0.77809513    -0.82600
H2287       H  0.70015078  0.04176551  0.80237209     0.18000
N2288       N  0.65672403  0.04278727  0.83831783    -0.81200
H2289       H  0.68727653  0.44954019  0.76388187     0.33600
H2290       H  0.70731728  0.44355340  0.79611172     0.38100
H2291       H  0.66717381  0.05933464  0.83214675     0.33600
H2292       H  0.63829803  0.04441149  0.82727837     0.30300
H2293       H  0.59281750  0.95709834  0.81045749     0.33600
H2294       H  0.61191356  0.98026208  0.79487271     0.30300
H2295       H  0.60836909  0.52900995  0.94185460     0.38200
H2296       H  0.63924809  0.51839126  0.94422276     0.33600
C2297       C  0.99788371  0.07869943  0.89873258    -0.20100
C2298       C  0.51592735  0.09698846  0.89929101     0.36100
C2299       C  0.51524727  0.11806833  0.87806155    -0.26100
C2300       C  0.99546347  0.12214043  0.85658551     0.02500
C2301       C  0.98077161  0.09984363  0.84913007     0.27400
C2302       C  0.98239408  0.07824095  0.87005931    -0.25200
N2303       N  0.53415694  0.09677353  0.92616118    -0.82600
H2304       H  0.52833455  0.13406246  0.88262104     0.13200
C2305       C  0.99390013  0.14599820  0.83621562     0.02500
N2306       N  0.96377560  0.09944174  0.82088898    -0.81200
H2307       H  0.97076827  0.06136169  0.86465916     0.18000
C2308       C  0.99951560  0.14526170  0.80237447    -0.26000
C2309       C  0.99974479  0.16775187  0.78324316     0.36000
C2310       C  0.99506960  0.19197509  0.79803453    -0.20000
C2311       C  0.49095775  0.18951804  0.82970275    -0.25300
C2312       C  0.48991139  0.16652792  0.84766607     0.27400
H2313       H  0.00407580  0.12711870  0.79070480     0.13100
N2314       N  0.00483072  0.16585172  0.74859609    -0.82600
H2315       H  0.48552260  0.20682002  0.84242891     0.18000
N2316       N  0.48210486  0.16670859  0.88173914    -0.81200
H2317       H  0.99061031  0.15390391  0.73814415     0.33600
H2318       H  0.02309797  0.15716629  0.74540160     0.38100
H2319       H  0.47814819  0.18535370  0.88974346     0.33600
H2320       H  0.46450877  0.15651066  0.88349015     0.30300
H2321       H  0.95430778  0.08173067  0.81890134     0.33600
H2322       H  0.94916197  0.11312685  0.82478223     0.30300
H2323       H  0.53047882  0.11276529  0.94101761     0.38200
H2324       H  0.55305358  0.09857595  0.91650243     0.33600
C2325       C  0.00136617  0.40216008  0.88785060    -0.20100
C2326       C  0.98710627  0.40427195  0.85802815     0.36100
C2327       C  0.98424813  0.38259871  0.83759382    -0.26100
C2328       C  0.99548015  0.35911702  0.84622567     0.02500
C2329       C  0.51991376  0.36176763  0.86650535     0.27400
C2330       C  0.52077317  0.38306437  0.88776690    -0.25200
N2331       N  0.97466083  0.42795752  0.84920750    -0.82600
H2332       H  0.97307117  0.38392221  0.81495318     0.13200
C2333       C  0.99197538  0.33661327  0.82455346     0.02500
N2334       N  0.54055216  0.34306144  0.86698279    -0.81200
H2335       H  0.53710561  0.38537620  0.90459879     0.18000
C2336       C  0.51224186  0.33107812  0.79785930    -0.26000
C2337       C  0.51175924  0.30782129  0.78015898     0.36000
C2338       C  0.99199261  0.28994638  0.78959997    -0.20000
C2339       C  0.97309832  0.29476108  0.81404356    -0.25300
C2340       C  0.97286816  0.31794717  0.83161260     0.27400
H2341       H  0.52610448  0.34591902  0.79116283     0.13100
N2342       N  0.52942956  0.30390026  0.75305793    -0.82600
H2343       H  0.95890685  0.28003729  0.82005136     0.18000
N2344       N  0.95344304  0.32256638  0.85662673    -0.81200
H2345       H  0.54015656  0.32056170  0.74829135     0.33600
H2346       H  0.54295782  0.29000799  0.76026731     0.38100
H2347       H  0.94055801  0.30703643  0.85831204     0.33600
H2348       H  0.96291950  0.32389082  0.87938884     0.30300
H2349       H  0.55499536  0.34825936  0.88402538     0.33600
H2350       H  0.53252803  0.32580384  0.87527991     0.30300
H2351       H  0.98945370  0.44090270  0.84286685     0.38200
H2352       H  0.96322055  0.42557230  0.82803524     0.33600
C2353       C  0.83992208  0.25602855  0.60450379    -0.20100
C2354       C  0.86366446  0.26852715  0.59581725     0.36100
C2355       C  0.88571714  0.26637309  0.61643611    -0.26100
C2356       C  0.88459800  0.25236967  0.64574220     0.02500
C2357       C  0.86070174  0.24100795  0.65540195     0.27400
C2358       C  0.83856745  0.24298224  0.63471231    -0.25200
N2359       N  0.86532123  0.28343579  0.56610619    -0.82600
H2360       H  0.90398224  0.27550862  0.60953123     0.13200
C2361       C  0.90869544  0.24962891  0.66597930     0.02500
N2362       N  0.85900203  0.22763671  0.68625917    -0.81200
H2363       H  0.82045576  0.23362075  0.64171110     0.18000
C2364       C  0.91514711  0.26863620  0.68911166    -0.26000
C2365       C  0.93722700  0.26604745  0.70957094     0.36000
C2366       C  0.95278430  0.24382275  0.70746660    -0.20000
C2367       C  0.94696276  0.22534751  0.68334959    -0.25300
C2368       C  0.92533908  0.22826997  0.66213326     0.27400
H2369       H  0.90280071  0.28539893  0.69156101     0.13100
N2370       N  0.94329331  0.28564721  0.73313399    -0.82600
H2371       H  0.95927359  0.20853250  0.68123199     0.18000
N2372       N  0.92041616  0.20986739  0.63643595    -0.81200
H2373       H  0.92710510  0.28801496  0.74861739     0.33600
H2374       H  0.94622727  0.30277750  0.72035453     0.38100
H2375       H  0.93509057  0.19591933  0.63604887     0.33600
H2376       H  0.90292057  0.20040760  0.64196661     0.30300
H2377       H  0.83995005  0.22090853  0.69011736     0.33600
H2378       H  0.87101756  0.21149370  0.68474747     0.30300
H2379       H  0.85250769  0.29892652  0.56859357     0.38200
H2380       H  0.88408422  0.29118954  0.56327000     0.33600
C2381       C  0.54536480  0.24710297  0.71429791    -0.20100
C2382       C  0.54263460  0.25578706  0.68165353     0.36100
C2383       C  0.56503759  0.26017186  0.66218988    -0.26100
C2384       C  0.59043775  0.25560616  0.67439415     0.02500
C2385       C  0.59326298  0.24812215  0.70768527     0.27400
C2386       C  0.57078329  0.24416038  0.72722550    -0.25200
N2387       N  0.51715168  0.25901480  0.66756210    -0.82600
H2388       H  0.56250328  0.26645589  0.63696123     0.13200
C2389       C  0.61357991  0.25699035  0.65157450     0.02500
N2390       N  0.61887585  0.24380648  0.72132055    -0.81200
H2391       H  0.57313267  0.23818423  0.75260382     0.18000
C2392       C  0.63599357  0.27129720  0.66029206    -0.26000
C2393       C  0.65853413  0.27176152  0.64000854     0.36000
C2394       C  0.65845942  0.25811899  0.60985784    -0.20000
C2395       C  0.63586635  0.24430854  0.60093755    -0.25300
C2396       C  0.61369099  0.24332857  0.62143262     0.27400
H2397       H  0.63589396  0.28219265  0.68305322     0.13100
N2398       N  0.68092697  0.28685838  0.64932497    -0.82600
H2399       H  0.63563042  0.23383775  0.57782420     0.18000
N2400       N  0.59138737  0.22817270  0.61184425    -0.81200
H2401       H  0.67715635  0.29697512  0.67109158     0.33600
H2402       H  0.69617694  0.27422121  0.65473911     0.38100
H2403       H  0.59446569  0.21958114  0.58885294     0.33600
H2404       H  0.58946970  0.21330730  0.62888786     0.30300
H2405       H  0.61756752  0.23859516  0.74613422     0.33600
H2406       H  0.62712179  0.22822553  0.70887058     0.30300
H2407       H  0.51552917  0.27795449  0.65952741     0.38200
H2408       H  0.51567048  0.24700599  0.64698020     0.33600
C2409       C  0.74314271  0.16571008  0.60235145    -0.20100
C2410       C  0.74159135  0.16741959  0.63716468     0.36100
C2411       C  0.74234624  0.14484464  0.65624390    -0.26100
C2412       C  0.74456990  0.12056807  0.64150647     0.02500
C2413       C  0.74595761  0.11868033  0.60698721     0.27400
C2414       C  0.74486653  0.14106481  0.58786943    -0.25200
N2415       N  0.73937378  0.19190003  0.65317331    -0.82600
H2416       H  0.74133950  0.14614533  0.68287920     0.13200
C2417       C  0.74687347  0.09737186  0.66257389     0.02500
N2418       N  0.74928097  0.09406645  0.59152205    -0.81200
H2419       H  0.74613248  0.13909243  0.56134092     0.18000
C2420       C  0.72766044  0.07820107  0.66122648    -0.26000
C2421       C  0.72947516  0.05616693  0.68096994     0.36000
C2422       C  0.75073714  0.05309788  0.70321826    -0.20000
C2423       C  0.77022527  0.07234892  0.70367748    -0.25300
C2424       C  0.76865704  0.09408557  0.68334432     0.27400
H2425       H  0.71108860  0.08037416  0.64477107     0.13100
N2426       N  0.70955221  0.03688536  0.67834984    -0.82600
H2427       H  0.78707052  0.07090296  0.71942109     0.18000
N2428       N  0.78938245  0.11277961  0.68329675    -0.81200
H2429       H  0.70904962  0.03041504  0.65393887     0.33600
H2430       H  0.69148833  0.04534232  0.68368461     0.38100
H2431       H  0.80412850  0.10770343  0.69991330     0.33600
H2432       H  0.79791510  0.11255607  0.65985955     0.30300
H2433       H  0.74993679  0.09590293  0.56587463     0.33600
H2434       H  0.76753404  0.08694898  0.59873679     0.30300
H2435       H  0.72110517  0.19949711  0.64693076     0.38200
H2436       H  0.73936990  0.18977817  0.67879981     0.33600
C2437       C  0.75439674  0.34329727  0.61176615    -0.20100
C2438       C  0.76789510  0.36634633  0.60439340     0.36100
C2439       C  0.76670239  0.38706433  0.62649148    -0.26100
C2440       C  0.75272743  0.38533826  0.65607487     0.02500
C2441       C  0.74018563  0.36213571  0.66431694     0.27400
C2442       C  0.74107625  0.34130566  0.64202854    -0.25200
N2443       N  0.78283722  0.36867610  0.57446875    -0.82600
H2444       H  0.77661160  0.40483536  0.62053144     0.13200
C2445       C  0.75144300  0.40839417  0.67761214     0.02500
N2446       N  0.72647782  0.35993706  0.69510843    -0.81200
H2447       H  0.73078471  0.32373768  0.64791381     0.18000
C2448       C  0.72898180  0.42384509  0.67703924    -0.26000
C2449       C  0.72870238  0.44780282  0.69299115     0.36000
C2450       C  0.75106022  0.45645040  0.71001184    -0.20000
C2451       C  0.77321724  0.44061721  0.71158063    -0.25300
C2452       C  0.77359463  0.41660033  0.69557013     0.27400
H2453       H  0.71196099  0.41771840  0.66311448     0.13100
N2454       N  0.70585637  0.46362256  0.69135882    -0.82600
H2455       H  0.79059747  0.44741683  0.72409645     0.18000
N2456       N  0.79659292  0.40077747  0.69658844    -0.81200
H2457       H  0.69011982  0.45330477  0.70112888     0.33600
H2458       H  0.70183257  0.46724011  0.66653981     0.38100
H2459       H  0.81123419  0.40952460  0.71071973     0.33600
H2460       H  0.79156422  0.38381863  0.70871049     0.30300
H2461       H  0.71824000  0.34167850  0.69743646     0.33600
H2462       H  0.74030330  0.36175788  0.71399433     0.30300
H2463       H  0.79127063  0.38687698  0.57260739     0.38200
H2464       H  0.79832117  0.35562824  0.57576408     0.33600
C2465       C  0.82784148  0.16735498  0.49712896    -0.20100
C2466       C  0.82191752  0.14224823  0.50824619     0.36100
C2467       C  0.84168527  0.12356210  0.50799664    -0.26100
C2468       C  0.86688934  0.12938837  0.49675142     0.02500
C2469       C  0.87286740  0.15414875  0.48561701     0.27400
C2470       C  0.85331673  0.17285879  0.48595727    -0.25200
N2471       N  0.79630721  0.13587452  0.52055599    -0.82600
H2472       H  0.83746670  0.10432645  0.51649150     0.13200
C2473       C  0.88697779  0.10931144  0.49649300     0.02500
N2474       N  0.89869671  0.16007736  0.47364834    -0.81200
H2475       H  0.85811297  0.19191078  0.47738857     0.18000
C2476       C  0.88985013  0.09411836  0.46825046    -0.26000
C2477       C  0.90944293  0.07548770  0.46637785     0.36000
C2478       C  0.92630313  0.07198845  0.49368417    -0.20000
C2479       C  0.92324426  0.08713706  0.52203149    -0.25300
C2480       C  0.90364018  0.10585167  0.52372522     0.27400
H2481       H  0.87692936  0.09698449  0.44737740     0.13100
N2482       N  0.91166600  0.06073175  0.43650888    -0.82600
H2483       H  0.93626572  0.08431470  0.54280713     0.18000
N2484       N  0.90032175  0.12110942  0.55300448    -0.81200
H2485       H  0.91642703  0.07339433  0.41749747     0.33600
H2486       H  0.92688477  0.04746179  0.43771562     0.38100
H2487       H  0.91395083  0.11582429  0.57097181     0.33600
H2488       H  0.90442121  0.14014909  0.54701333     0.30300
H2489       H  0.89971981  0.17912526  0.46584501     0.33600
H2490       H  0.91175721  0.15841769  0.49335445     0.30300
H2491       H  0.78360045  0.13516490  0.50036616     0.38200
H2492       H  0.79619914  0.11745727  0.53063522     0.33600
C2493       C  0.65407919  0.17965883  0.49503040    -0.20100
C2494       C  0.62895745  0.18564499  0.48234344     0.36100
C2495       C  0.60973805  0.16641343  0.48102708    -0.26100
C2496       C  0.61539629  0.14150095  0.49139940     0.02500
C2497       C  0.64021578  0.13548841  0.50406588     0.27400
C2498       C  0.65932289  0.15462369  0.50578151    -0.25200
N2499       N  0.62320745  0.21086040  0.47013828    -0.82600
H2500       H  0.59045367  0.17065357  0.47130172     0.13200
C2501       C  0.59522695  0.12158496  0.48901738     0.02500
N2502       N  0.64583205  0.10992157  0.51509682    -0.81200
H2503       H  0.67840120  0.14993400  0.51577120     0.18000
C2504       C  0.59792392  0.10236001  0.46512138    -0.26000
C2505       C  0.58018164  0.08201961  0.46349010     0.36000
C2506       C  0.55956568  0.08089875  0.48677622    -0.20000
C2507       C  0.55681183  0.10034929  0.51042953    -0.25300
C2508       C  0.57445115  0.12082160  0.51170432     0.27400
H2509       H  0.61403229  0.10315486  0.44773591     0.13100
N2510       N  0.58355881  0.06322109  0.43785319    -0.82600
H2511       H  0.54104781  0.09925087  0.52827656     0.18000
N2512       N  0.57169266  0.14057878  0.53621318    -0.81200
H2513       H  0.60086028  0.05324758  0.44277999     0.33600
H2514       H  0.56837244  0.04983466  0.43747718     0.38100
H2515       H  0.55515288  0.13724068  0.55079891     0.33600
H2516       H  0.58790609  0.13952985  0.55189642     0.30300
H2517       H  0.66514706  0.10860320  0.52348814     0.33600
H2518       H  0.63378732  0.10616062  0.53536722     0.30300
H2519       H  0.63491750  0.21391342  0.44936273     0.38200
H2520       H  0.60377609  0.21197928  0.46210635     0.33600
C2521       C  0.57004380  0.44768477  0.50305707    -0.20100
C2522       C  0.58994042  0.44694665  0.47914967     0.36100
C2523       C  0.60928182  0.42800306  0.48095965    -0.26100
C2524       C  0.60935639  0.41024278  0.50688288     0.02500
C2525       C  0.59034044  0.41217898  0.53218120     0.27400
C2526       C  0.57054253  0.43051543  0.52950391    -0.25200
N2527       N  0.59030745  0.46524762  0.45291395    -0.82600
H2528       H  0.62407575  0.42691242  0.46184040     0.13200
C2529       C  0.62891994  0.38946699  0.50637938     0.02500
N2530       N  0.59099078  0.39656947  0.56131801    -0.81200
H2531       H  0.55558441  0.43163050  0.54841447     0.18000
C2532       C  0.65550681  0.39551168  0.50927432    -0.26000
C2533       C  0.67469875  0.37625074  0.50885387     0.36000
C2534       C  0.66690447  0.35017735  0.50568291    -0.20000
C2535       C  0.64003036  0.34444170  0.50294827    -0.25300
C2536       C  0.62114500  0.36378380  0.50298586     0.27400
H2537       H  0.66127295  0.41541008  0.51180411     0.13100
N2538       N  0.70185556  0.38329013  0.51171809    -0.82600
H2539       H  0.63343482  0.32480543  0.50036364     0.18000
N2540       N  0.59401907  0.35730492  0.49931159    -0.81200
H2541       H  0.70380353  0.40287401  0.51664082     0.33600
H2542       H  0.71051453  0.38029589  0.48867181     0.38100
H2543       H  0.59178204  0.34732512  0.47710291     0.33600
H2544       H  0.58887184  0.34495866  0.51851115     0.30300
H2545       H  0.57487944  0.38420430  0.56047742     0.33600
H2546       H  0.60783789  0.38532769  0.56248868     0.30300
H2547       H  0.60809576  0.47516959  0.45405239     0.38200
H2548       H  0.58968502  0.45527191  0.43054801     0.33600
C2549       C  0.83966914  0.33898258  0.49756924    -0.20100
C2550       C  0.86586227  0.33329073  0.48876647     0.36100
C2551       C  0.88453340  0.35303285  0.48761287    -0.26100
C2552       C  0.87747627  0.37839637  0.49442085     0.02500
C2553       C  0.85148283  0.38434830  0.50271743     0.27400
C2554       C  0.83290180  0.36463232  0.50435800    -0.25200
N2555       N  0.87359603  0.30773872  0.48033149    -0.82600
H2556       H  0.90461378  0.34859056  0.48109541     0.13200
C2557       C  0.89760512  0.39860830  0.49358290     0.02500
N2558       N  0.84408139  0.41043233  0.50930832    -0.81200
H2559       H  0.81297288  0.36950029  0.51097994     0.18000
C2560       C  0.89963035  0.41431371  0.46575809    -0.26000
C2561       C  0.91816472  0.43407216  0.46444020     0.36000
C2562       C  0.93489681  0.43815688  0.49178811    -0.20000
C2563       C  0.93276806  0.42241549  0.51962936    -0.25300
C2564       C  0.91414472  0.40267600  0.52083824     0.27400
H2565       H  0.88672279  0.41114453  0.44491889     0.13100
N2566       N  0.91957185  0.44930557  0.43500307    -0.82600
H2567       H  0.94549279  0.42581489  0.54058566     0.18000
N2568       N  0.91178345  0.38681916  0.54960840    -0.81200
H2569       H  0.90223783  0.45987017  0.43345186     0.33600
H2570       H  0.93496982  0.46245601  0.43579048     0.38100
H2571       H  0.92553049  0.39224022  0.56742737     0.33600
H2572       H  0.89331688  0.39014023  0.55990104     0.30300
H2573       H  0.82407772  0.41162709  0.51463608     0.33600
H2574       H  0.85400096  0.41638405  0.53054200     0.30300
H2575       H  0.88113190  0.30794685  0.45635908     0.38200
H2576       H  0.88864565  0.30226242  0.49629566     0.33600
C2577       C  0.65541042  0.26460860  0.39264277    -0.20100
C2578       C  0.65884634  0.26343609  0.35790336     0.36100
C2579       C  0.63671292  0.26126360  0.33713046    -0.26100
C2580       C  0.61122156  0.26119439  0.35004923     0.02500
C2581       C  0.60765360  0.26417078  0.38421964     0.27400
C2582       C  0.62959662  0.26553179  0.40508143    -0.25200
N2583       N  0.68461316  0.26437883  0.34368127    -0.82600
H2584       H  0.63932863  0.25938921  0.31072610     0.13200
C2585       C  0.58822942  0.25695864  0.32806999     0.02500
N2586       N  0.58160927  0.26563618  0.39759696    -0.81200
H2587       H  0.62631636  0.26708637  0.43138051     0.18000
C2588       C  0.57326836  0.23462579  0.33209876    -0.26000
C2589       C  0.55096608  0.23005166  0.31276073     0.36000
C2590       C  0.54306358  0.24820249  0.28912205    -0.20000
C2591       C  0.55788748  0.27064035  0.28507794    -0.25300
C2592       C  0.58055707  0.27513274  0.30423296     0.27400
H2593       H  0.57903458  0.22057783  0.35032630     0.13100
N2594       N  0.53626643  0.20691702  0.31722046    -0.82600
H2595       H  0.55215518  0.28430629  0.26636905     0.18000
N2596       N  0.59581720  0.29798292  0.29959073    -0.81200
H2597       H  0.53010613  0.20615419  0.34177612     0.33600
H2598       H  0.54878524  0.19142412  0.31297679     0.38100
H2599       H  0.58777182  0.30920108  0.28084609     0.33600
H2600       H  0.59459415  0.30876293  0.32129308     0.30300
H2601       H  0.58222375  0.26787438  0.42320473     0.33600
H2602       H  0.57286577  0.28217974  0.38819881     0.30300
H2603       H  0.69223678  0.28262812  0.34841864     0.38200
H2604       H  0.68364316  0.26259555  0.31802896     0.33600
C2605       C  0.83402687  0.25347694  0.38689647    -0.20100
C2606       C  0.85513212  0.23626071  0.39090933     0.36100
C2607       C  0.87641672  0.23709257  0.36902675    -0.26100
C2608       C  0.87744301  0.25488040  0.34326140     0.02500
C2609       C  0.85597736  0.27148450  0.33827106     0.27400
C2610       C  0.83432751  0.27044088  0.35998651    -0.25200
N2611       N  0.85496922  0.21802376  0.41738521    -0.82600
H2612       H  0.89255553  0.22387248  0.37225852     0.13200
C2613       C  0.90133071  0.25540724  0.32207489     0.02500
N2614       N  0.85655704  0.28972309  0.31180457    -0.81200
H2615       H  0.81820000  0.28366803  0.35677840     0.18000
C2616       C  0.89923803  0.24974197  0.28838304    -0.26000
C2617       C  0.92174128  0.24619459  0.26885411     0.36000
C2618       C  0.94688071  0.24813488  0.28339711    -0.20000
C2619       C  0.94899089  0.25545396  0.31652445    -0.25300
C2620       C  0.92645426  0.25911357  0.33602866     0.27400
H2621       H  0.88000154  0.24712787  0.27758174     0.13100
N2622       N  0.91919638  0.24032456  0.23436362    -0.82600
H2623       H  0.96825059  0.25729705  0.32752681     0.18000
N2624       N  0.92890680  0.26601295  0.37021323    -0.81200
H2625       H  0.89946519  0.23959555  0.22750322     0.33600
H2626       H  0.92755149  0.25549548  0.22132774     0.38100
H2627       H  0.94862927  0.26786646  0.37676296     0.33600
H2628       H  0.92043394  0.28408556  0.37324047     0.30300
H2629       H  0.83935055  0.30055774  0.31156717     0.33600
H2630       H  0.87191529  0.30250216  0.31647977     0.30300
H2631       H  0.83950180  0.20531061  0.41312132     0.38200
H2632       H  0.87212155  0.20709988  0.41726974     0.33600
C2633       C  0.75225314  0.34909414  0.39531274    -0.20100
C2634       C  0.76493060  0.37237281  0.40392528     0.36100
C2635       C  0.76327859  0.39354569  0.38264776    -0.26100
C2636       C  0.74956598  0.39208172  0.35275599     0.02500
C2637       C  0.73765133  0.36873487  0.34355835     0.27400
C2638       C  0.73938393  0.34739760  0.36471369    -0.25200
N2639       N  0.77952011  0.37448142  0.43417072    -0.82600
H2640       H  0.77272296  0.41141074  0.38941088     0.13200
C2641       C  0.74762942  0.41543806  0.33182108     0.02500
N2642       N  0.72315289  0.36704021  0.31326751    -0.81200
H2643       H  0.72967400  0.32969438  0.35787715     0.18000
C2644       C  0.75993638  0.41609975  0.30092243    -0.26000
C2645       C  0.76034195  0.43864614  0.28189487     0.36000
C2646       C  0.74797362  0.46112724  0.29370949    -0.20000
C2647       C  0.73489254  0.45997738  0.32427717    -0.25300
C2648       C  0.73457240  0.43747953  0.34332207     0.27400
H2649       H  0.77000278  0.39920646  0.29193789     0.13100
N2650       N  0.77423677  0.43869134  0.25126292    -0.82600
H2651       H  0.72461481  0.47668794  0.33337116     0.18000
N2652       N  0.72097342  0.43686931  0.37434869    -0.81200
H2653       H  0.79366708  0.43352419  0.25586977     0.33600
H2654       H  0.76592681  0.42467020  0.23603562     0.38100
H2655       H  0.71249033  0.45465731  0.37946418     0.33600
H2656       H  0.70556390  0.42376297  0.37206921     0.30300
H2657       H  0.71552804  0.34859651  0.31009785     0.33600
H2658       H  0.70710320  0.37936658  0.31526834     0.30300
H2659       H  0.79547790  0.36201176  0.43251572     0.38200
H2660       H  0.78727911  0.39290937  0.43697771     0.33600
C2661       C  0.75562760  0.05779881  0.29613571    -0.20100
C2662       C  0.73466527  0.06409780  0.31762511     0.36100
C2663       C  0.73496544  0.08724981  0.33536496    -0.26100
C2664       C  0.75598039  0.10438625  0.33266246     0.02500
C2665       C  0.77744997  0.09797221  0.31263391     0.27400
C2666       C  0.77722836  0.07478197  0.29493270    -0.25200
N2667       N  0.71282526  0.04707389  0.32135511    -0.82600
H2668       H  0.71863076  0.09190143  0.35135630     0.13200
C2669       C  0.75538595  0.12891102  0.35119974     0.02500
N2670       N  0.79933072  0.11524715  0.31007914    -0.81200
H2671       H  0.79431144  0.07049784  0.28050309     0.18000
C2672       C  0.77358014  0.13307463  0.37653381    -0.26000
C2673       C  0.77256463  0.15537936  0.39587191     0.36000
C2674       C  0.75280367  0.17370889  0.38987542    -0.20000
C2675       C  0.73559465  0.17030892  0.36334649    -0.25300
C2676       C  0.73674530  0.14799667  0.34383466     0.27400
H2677       H  0.78821290  0.11860587  0.38166171     0.13100
N2678       N  0.79120583  0.15938755  0.42200223    -0.82600
H2679       H  0.72061733  0.18453552  0.35871985     0.18000
N2680       N  0.71890088  0.14442020  0.31681739    -0.81200
H2681       H  0.80455778  0.14424703  0.42309013     0.33600
H2682       H  0.80201899  0.17580063  0.41628699     0.38100
H2683       H  0.70638999  0.16016564  0.31471398     0.33600
H2684       H  0.73000291  0.14381000  0.29516966     0.30300
H2685       H  0.81372488  0.10774378  0.29449140     0.33600
H2686       H  0.79260588  0.13205162  0.29898526     0.30300
H2687       H  0.69581571  0.05696991  0.31482008     0.38200
H2688       H  0.71136564  0.04211336  0.34623877     0.33600
O2689       O  0.74541388  0.71669627  0.40273326    -0.80400
O2690       O  0.74866942  0.71336665  0.59265790    -0.81900
O2691       O  0.78588475  0.68339805  0.49689635    -0.78900
O2692       O  0.70160148  0.68863724  0.49959805    -0.77300
O2693       O  0.67144824  0.72061615  0.50262393    -0.79100
O2694       O  0.81922296  0.71240865  0.49735518    -0.80100
O2695       O  0.74487122  0.68506773  0.54988659    -0.81400
O2696       O  0.74572420  0.68663952  0.44373283    -0.81700
Eu2697     Eu  0.74524323  0.70767399  0.49766986     2.39200
O2698       O  0.72142405  0.73394508  0.53358363    -0.89200
O2699       O  0.77223512  0.73219437  0.46340869    -0.92800
C2700       C  0.74595510  0.69323907  0.41314057     1.01900
C2701       C  0.74665055  0.69031137  0.58083624     1.01700
C2702       C  0.81036850  0.68918990  0.49723902     1.01700
C2703       C  0.67785985  0.69680765  0.50180806     0.99500
H2704       H  0.78453876  0.71935145  0.54514022     0.29300
O2705       O  0.77371247  0.73080401  0.53242595    -1.01600
H2706       H  0.70750304  0.72427251  0.45213414     0.29300
O2707       O  0.71923362  0.73463534  0.46528686    -1.04100
O2708       O  0.75006889  0.80005111  0.59619174    -0.81300
O2709       O  0.74845611  0.80290191  0.40571309    -0.80900
O2710       O  0.82412242  0.75606821  0.54974301    -0.79300
O2711       O  0.67511534  0.75808591  0.55654825    -0.82700
O2712       O  0.67140559  0.76164107  0.44906571    -0.80500
O2713       O  0.82145951  0.75489529  0.44469223    -0.79200
O2714       O  0.79367183  0.82853577  0.49944524    -0.80700
O2715       O  0.70893903  0.83356014  0.50280996    -0.82600
O2716       O  0.82399550  0.79660296  0.49787571    -0.79300
O2717       O  0.67598805  0.80416008  0.50369197    -0.82000
O2718       O  0.79491123  0.75788162  0.59233493    -0.77700
O2719       O  0.79087250  0.75742476  0.40355242    -0.77800
O2720       O  0.70088707  0.76019196  0.40673180    -0.77400
O2721       O  0.70663468  0.75669142  0.59675531    -0.80900
O2722       O  0.75196641  0.83037346  0.55554175    -0.80300
O2723       O  0.75025733  0.83153928  0.44840891    -0.78700
Eu2724     Eu  0.74966719  0.75737526  0.56857035     2.39800
Eu2725     Eu  0.74633682  0.75942676  0.43039693     2.39600
Eu2726     Eu  0.80012421  0.75583643  0.49800924     2.38400
Eu2727     Eu  0.69525148  0.76107994  0.50157281     2.39900
Eu2728     Eu  0.74999321  0.80947757  0.50134402     2.39800
O2729       O  0.72190324  0.78587533  0.46680829    -0.93100
O2730       O  0.77620273  0.78250378  0.53370673    -0.92000
C2731       C  0.75142926  0.82355139  0.58609060     1.02100
C2732       C  0.75024287  0.82596318  0.41744695     1.00800
C2733       C  0.81859501  0.75746730  0.58063125     1.00200
C2734       C  0.68250151  0.75679488  0.58695906     1.02200
C2735       C  0.67706457  0.76086928  0.41803879     1.01100
C2736       C  0.81486828  0.75542055  0.41411882     1.00000
C2737       C  0.81749024  0.82044294  0.49810935     1.00000
C2738       C  0.68447493  0.82743878  0.50359295     1.02600
H2739       H  0.78571018  0.79365195  0.45211195     0.30000
O2740       O  0.77433122  0.78318300  0.46552057    -1.05300
H2741       H  0.71291444  0.79572276  0.55011759     0.32100
O2742       O  0.72326388  0.78476512  0.53601152    -1.07800
N2743       N  0.53743813  0.51187998  0.49895027    -0.36900
N2744       N  0.99673687  0.54805735  0.50002358    -0.57400
N2745       N  0.95887962  0.50631257  0.49412488    -0.36800
N2746       N  0.99947321  0.96997352  0.50281177    -0.57400
C2747       C  0.54993679  0.53368802  0.50747354     0.26700
C2748       C  0.55439857  0.99383562  0.50299946     0.26700
C2749       C  0.94250671  0.52606647  0.50025558     0.26700
C2750       C  0.94398164  0.98565732  0.50272263     0.26700
C2751       C  0.51475419  0.56442621  0.49318130     0.35400
C2752       C  0.97471862  0.56204746  0.49619646     0.35400
C2753       C  0.52394175  0.95778846  0.49486730     0.35400
C2754       C  0.97960752  0.95407596  0.49482225     0.35400
C2755       C  0.57402458  0.52790216  0.52140132    -0.22100
C2756       C  0.57749084  0.00440815  0.51477370    -0.22100
C2757       C  0.91766854  0.51670601  0.50714519    -0.22100
C2758       C  0.91915457  0.99224850  0.51368125    -0.22100
C2759       C  0.50559787  0.58811242  0.48305365    -0.23200
C2760       C  0.98104561  0.58760477  0.49142153    -0.23200
C2761       C  0.51784948  0.93286828  0.48587845    -0.23200
C2762       C  0.98915987  0.93005370  0.48661494    -0.23200
C2763       C  0.54110031  0.55858568  0.50013013    -0.18500
C2764       C  0.54935793  0.96743549  0.49966686    -0.18500
C2765       C  0.95290487  0.96042203  0.49762132    -0.18500
C2766       C  0.94889566  0.55236385  0.49811410    -0.18500
H2767       H  0.58876831  0.54123170  0.53008563     0.14400
H2768       H  0.59439000  0.99432126  0.52423902     0.14400
H2769       H  0.90017952  0.52763638  0.51251266     0.14400
H2770       H  0.90364808  0.97941470  0.52133945     0.14400
H2771       H  0.51703787  0.60501583  0.47741892     0.12700
H2772       H  0.96775039  0.60349275  0.48791775     0.12700
H2773       H  0.53130862  0.91757289  0.47978697     0.12700
H2774       H  0.97802177  0.91324518  0.47959924     0.12700
H2775       H  0.52077865  0.51071825  0.48428660     0.25900
H2776       H  0.97759784  0.50774626  0.48448531     0.25900
O2777       O  0.00190222  0.94665450  0.90918144    -0.80400
O2778       O  0.99950600  0.94437921  0.09879172    -0.81900
O2779       O  0.54464511  0.91677482  0.00418409    -0.78900
O2780       O  0.96079625  0.91308376  0.00236471    -0.77300
O2781       O  0.92716688  0.94159458  0.00271980    -0.79100
O2782       O  0.57550984  0.94849232  0.00263528    -0.80100
O2783       O  0.00150165  0.91495431  0.05715042    -0.81400
O2784       O  0.00379099  0.91588831  0.94929829    -0.81700
Eu2785     Eu  0.00187775  0.93685932  0.00340588     2.39200
O2786       O  0.97363992  0.96039591  0.03736678    -0.89200
O2787       O  0.52751731  0.96375453  0.96976192    -0.92800
C2788       C  0.00304396  0.92307720  0.91888197     1.01900
C2789       C  0.00046607  0.92103542  0.08804981     1.01700
C2790       C  0.56852979  0.92472033  0.00282866     1.01700
C2791       C  0.93623787  0.91849522  0.00243172     0.99500
H2792       H  0.53820347  0.95285575  0.05205053     0.29300
O2793       O  0.52712747  0.96340882  0.03836751    -1.01600
H2794       H  0.96467356  0.95017543  0.95499410     0.29300
O2795       O  0.97493562  0.96149047  0.96882010    -1.04100
O2796       O  0.99729117  0.52914437  0.09446331    -0.81300
O2797       O  0.00178198  0.53248171  0.90371506    -0.80900
O2798       O  0.57462947  0.99113039  0.05786339    -0.79300
O2799       O  0.92460900  0.98269799  0.05632324    -0.82700
O2800       O  0.92558440  0.98312477  0.94857986    -0.80500
O2801       O  0.57538367  0.99024981  0.95127153    -0.79200
O2802       O  0.53942356  0.56132439  0.99771419    -0.80700
O2803       O  0.95323015  0.55874040  0.99573296    -0.82600
O2804       O  0.57248159  0.53202822  0.99839744    -0.79300
O2805       O  0.92313047  0.52654742  0.99433375    -0.82000
O2806       O  0.54374042  0.98997547  0.09874701    -0.77700
O2807       O  0.54641237  0.49006896  0.90434617    -0.77800
O2808       O  0.95797000  0.48748483  0.90139952    -0.77400
O2809       O  0.95463616  0.98512852  0.09819410    -0.80900
O2810       O  0.99519592  0.55966885  0.05400543    -0.80300
O2811       O  0.99994605  0.56178043  0.94573916    -0.78700
Eu2812     Eu  0.99833134  0.98722119  0.07255667     2.39800
Eu2813     Eu  0.00003152  0.98953824  0.93541193     2.39600
Eu2814     Eu  0.55276182  0.98993706  0.00433581     2.38400
Eu2815     Eu  0.94661468  0.98486635  0.00288536     2.39900
Eu2816     Eu  0.99673641  0.53960175  0.99906284     2.39800
O2817       O  0.97256373  0.51340956  0.96304670    -0.93100
O2818       O  0.52381217  0.51530893  0.03171596    -0.92000
C2819       C  0.99596265  0.55258095  0.08449142     1.02100
C2820       C  0.00183311  0.55573086  0.91493988     1.00800
C2821       C  0.56782776  0.99106055  0.08847487     1.00200
C2822       C  0.93098767  0.98324662  0.08707039     1.02200
C2823       C  0.93395180  0.48506294  0.91134125     1.01100
C2824       C  0.56991089  0.49114539  0.91653852     1.00000
C2825       C  0.56384591  0.55522720  0.99742612     1.00000
C2826       C  0.92948754  0.55046340  0.99424914     1.02600
H2827       H  0.53653871  0.52570637  0.95120179     0.30000
O2828       O  0.52555185  0.51459730  0.96425352    -1.05300
H2829       H  0.95906778  0.52266854  0.04524776     0.32100
O2830       O  0.97095902  0.51252671  0.03203359    -1.07800
N2831       N  0.78936867  0.73426401  0.97658598    -0.36900
N2832       N  0.75230003  0.77652629  0.98177083    -0.57400
N2833       N  0.70905299  0.74067628  0.97914186    -0.36800
N2834       N  0.74612297  0.69843899  0.97729640    -0.57400
C2835       C  0.80581307  0.75379274  0.98370299     0.26700
C2836       C  0.80230382  0.71227929  0.98320292     0.26700
C2837       C  0.69612471  0.76213949  0.98820915     0.26700
C2838       C  0.69272737  0.72073017  0.98442988     0.26700
C2839       C  0.77451399  0.79004098  0.97688750     0.35400
C2840       C  0.73236128  0.79345957  0.98014075     0.35400
C2841       C  0.76590665  0.68175215  0.97244389     0.35400
C2842       C  0.72380605  0.68525972  0.97186298     0.35400
C2843       C  0.82971343  0.74412523  0.99412002    -0.22100
C2844       C  0.82746265  0.71789970  0.99390844    -0.22100
C2845       C  0.67104898  0.75579520  0.99857950    -0.22100
C2846       C  0.66887676  0.72964824  0.99608451    -0.22100
C2847       C  0.76866318  0.81572471  0.97231824    -0.23200
C2848       C  0.74192587  0.81789062  0.97443926    -0.23200
C2849       C  0.75617485  0.65784537  0.96395811    -0.23200
C2850       C  0.72944323  0.66007200  0.96353046    -0.23200
C2851       C  0.80006965  0.78010057  0.98035505    -0.18500
C2852       C  0.79248705  0.68727369  0.97824323    -0.18500
C2853       C  0.69847884  0.69476057  0.97811693    -0.18500
C2854       C  0.70580420  0.78741022  0.98582440    -0.18500
H2855       H  0.84697898  0.75483803  0.00127688     0.14400
H2856       H  0.84267691  0.70449969  0.00070633     0.14400
H2857       H  0.65583006  0.76866725  0.00697282     0.14400
H2858       H  0.65167897  0.71848763  0.00222321     0.14400
H2859       H  0.78228677  0.83137342  0.96869216     0.12700
H2860       H  0.73083661  0.83547815  0.97256050     0.12700
H2861       H  0.76716197  0.64050912  0.95920729     0.12700
H2862       H  0.71572197  0.64471283  0.95856203     0.12700
H2863       H  0.77139322  0.73590167  0.96482334     0.25900
H2864       H  0.72690069  0.73983956  0.96696532     0.25900
C2865       C  0.00000658  0.71295783  0.22618220     0.86200
C2866       C  0.52047709  0.71697140  0.24832355    -0.54000
C2867       C  0.51930850  0.73808330  0.26825035     0.09200
C2868       C  0.99757184  0.75451790  0.26259729     0.20100
C2869       C  0.97468945  0.71546428  0.24638876    -0.54700
C2870       C  0.97300368  0.73718431  0.26522622     0.09300
C2871       C  0.00145309  0.73840719  0.20653658    -0.54200
C2872       C  0.00018115  0.76000189  0.22555974     0.09800
H2873       H  0.53635889  0.70318917  0.24967633     0.14400
H2874       H  0.99668046  0.77217122  0.27788443     0.00100
H2875       H  0.95947333  0.70092385  0.24594849     0.14700
H2876       H  0.00302690  0.74011999  0.18008270     0.14500
C2877       C  0.74933232  0.53299857  0.26911774     0.86200
C2878       C  0.77218897  0.52860887  0.24481561    -0.54000
C2879       C  0.77466826  0.00657027  0.23259152     0.09200
C2880       C  0.75045735  0.99039122  0.24133476     0.20100
C2881       C  0.72492814  0.52951627  0.24766030    -0.54700
C2882       C  0.72691164  0.00867401  0.23695097     0.09300
C2883       C  0.75480049  0.00876186  0.29629218    -0.54200
C2884       C  0.75266554  0.98631722  0.27886922     0.09800
H2885       H  0.78822028  0.54173208  0.24052335     0.14400
H2886       H  0.74868980  0.97231734  0.22711263     0.00100
H2887       H  0.71003658  0.54425753  0.24560022     0.14700
H2888       H  0.75672709  0.00931804  0.32294935     0.14500
C2889       C  0.99802248  0.71756431  0.77525722     0.86200
C2890       C  0.97539374  0.71938598  0.75059387    -0.54000
C2891       C  0.97518002  0.74115520  0.73202381     0.09200
C2892       C  0.99816790  0.75960148  0.73986460     0.20100
C2893       C  0.52407697  0.72020541  0.75304060    -0.54700
C2894       C  0.52440928  0.74215452  0.73482665     0.09300
C2895       C  0.99603715  0.74265468  0.79565183    -0.54200
C2896       C  0.99619308  0.76456226  0.77725299     0.09800
H2897       H  0.96021603  0.70484692  0.74868195     0.14400
H2898       H  0.99808870  0.77748225  0.72517192     0.00100
H2899       H  0.53979139  0.70621254  0.75201741     0.14700
H2900       H  0.99590028  0.74381093  0.82226858     0.14500
C2901       C  0.75347570  0.52959271  0.72393498     0.86200
C2902       C  0.72935269  0.52833948  0.74639080    -0.54000
C2903       C  0.72637208  0.00624500  0.76760329     0.09200
C2904       C  0.75049969  0.98853809  0.76339958     0.20100
C2905       C  0.77676551  0.52659979  0.74791419    -0.54700
C2906       C  0.77439884  0.00604026  0.77020945     0.09300
C2907       C  0.75246985  0.00421104  0.70687639    -0.54200
C2908       C  0.75147338  0.98278607  0.72603656     0.09800
H2909       H  0.71460782  0.54329526  0.74666801     0.14400
H2910       H  0.75011455  0.97119504  0.77909611     0.00100
H2911       H  0.79365352  0.53903469  0.74903491     0.14700
H2912       H  0.75310504  0.00329480  0.68012712     0.14500
C2913       C  0.70311697  0.00309840  0.21666572    -0.20100
C2914       C  0.70480109  0.99288478  0.18453622     0.36100
C2915       C  0.68200041  0.99006996  0.16538243    -0.26100
C2916       C  0.65735698  0.99762957  0.17742016     0.02500
C2917       C  0.65206655  0.50654099  0.20395786     0.27400
C2918       C  0.67468161  0.50839595  0.22351598    -0.25200
N2919       N  0.72968555  0.98643262  0.17058810    -0.82600
H2920       H  0.68364683  0.98248410  0.14057497     0.13200
C2921       C  0.63400586  0.99644600  0.15521726     0.02500
N2922       N  0.62795069  0.51810151  0.21463242    -0.81200
H2923       H  0.67328926  0.51766563  0.24736828     0.18000
C2924       C  0.61169139  0.98235612  0.16447769    -0.26000
C2925       C  0.58962450  0.98044692  0.14355818     0.36000
C2926       C  0.58979087  0.99302282  0.11274346    -0.20000
C2927       C  0.60880781  0.50749874  0.10044645    -0.25300
C2928       C  0.63077996  0.50802882  0.12120395     0.27400
H2929       H  0.61173538  0.97235279  0.18784090     0.13100
N2930       N  0.56749841  0.96516530  0.15309129    -0.82600
H2931       H  0.60937891  0.51810902  0.07752761     0.18000
N2932       N  0.65343210  0.52298779  0.11256336    -0.81200
H2933       H  0.57038842  0.95739498  0.17653910     0.33600
H2934       H  0.56642566  0.94970906  0.13669772     0.38100
H2935       H  0.65056854  0.53223634  0.09002093     0.33600
H2936       H  0.65550880  0.53739259  0.13034277     0.30300
H2937       H  0.63025523  0.52662764  0.23780509     0.33600
H2938       H  0.62360515  0.53292264  0.19822859     0.30300
H2939       H  0.73225202  0.99727337  0.14919577     0.38200
H2940       H  0.72921130  0.96710417  0.16380346     0.33600
C2941       C  0.90922530  0.98226920  0.11095277    -0.20100
C2942       C  0.88718987  0.96646913  0.10515521     0.36100
C2943       C  0.86527231  0.96849652  0.12586165    -0.26100
C2944       C  0.86497702  0.98597244  0.15210638     0.02500
C2945       C  0.88595313  0.49844864  0.15364121     0.27400
C2946       C  0.90797146  0.49605353  0.13278784    -0.25200
N2947       N  0.88709501  0.94864002  0.07804716    -0.82600
H2948       H  0.84814751  0.95672413  0.12125289     0.13200
C2949       C  0.84076942  0.98899556  0.17177648     0.02500
N2950       N  0.88761877  0.51386968  0.18297940    -0.81200
H2951       H  0.92600400  0.50582957  0.13922728     0.18000
C2952       C  0.84123750  0.98312221  0.20542735    -0.26000
C2953       C  0.81943027  0.98803968  0.22549519     0.36000
C2954       C  0.79639811  0.99800830  0.21127353    -0.20000
C2955       C  0.79172283  0.50160057  0.17262142    -0.25300
C2956       C  0.81370565  0.49785415  0.15199243     0.27400
H2957       H  0.85901754  0.97553760  0.21622026     0.13100
N2958       N  0.82077937  0.98357855  0.26042027    -0.82600
H2959       H  0.77358319  0.50871291  0.16227499     0.18000
N2960       N  0.81190521  0.50336023  0.11735754    -0.81200
H2961       H  0.83876481  0.97540210  0.26674910     0.33600
H2962       H  0.82003774  0.00133868  0.27232108     0.38100
H2963       H  0.79299628  0.50935113  0.11121663     0.33600
H2964       H  0.82441499  0.51875895  0.11243249     0.30300
H2965       H  0.90654294  0.52120789  0.18596774     0.33600
H2966       H  0.87522082  0.52959385  0.17983358     0.30300
H2967       H  0.90180270  0.93515224  0.08240647     0.38200
H2968       H  0.86940493  0.93853772  0.07714092     0.33600
C2969       C  0.00121934  0.78611512  0.21095298    -0.20100
C2970       C  0.97992247  0.80320014  0.21358682     0.36100
C2971       C  0.98044928  0.82646748  0.19599759    -0.26100
C2972       C  0.00195072  0.83299132  0.17614171     0.02500
C2973       C  0.52030194  0.81750148  0.17099576     0.27400
C2974       C  0.51967496  0.79404420  0.18792658    -0.25200
N2975       N  0.95743517  0.79640848  0.23297358    -0.82600
H2976       H  0.96369207  0.83916264  0.19684611     0.13200
C2977       C  0.00047590  0.85584149  0.15438640     0.02500
N2978       N  0.54139767  0.82322588  0.14868456    -0.81200
H2979       H  0.53487219  0.77999624  0.18340701     0.18000
C2980       C  0.50871614  0.88178272  0.16517512    -0.26000
C2981       C  0.50781587  0.90365484  0.14481005     0.36000
C2982       C  0.00001357  0.89928168  0.11220406    -0.20000
C2983       C  0.99303054  0.87474960  0.10050542    -0.25300
C2984       C  0.99310141  0.85315899  0.12110856     0.27400
H2985       H  0.51816174  0.88283680  0.18906368     0.13100
N2986       N  0.51934389  0.92726490  0.15591211    -0.82600
H2987       H  0.98741102  0.87227304  0.07496486     0.18000
N2988       N  0.98519880  0.82854731  0.10845861    -0.81200
H2989       H  0.52843614  0.92478647  0.17877582     0.33600
H2990       H  0.50410284  0.94025384  0.15989884     0.38100
H2991       H  0.97980061  0.82992952  0.08366413     0.33600
H2992       H  0.00136113  0.81633032  0.10918664     0.30300
H2993       H  0.55496043  0.80824062  0.14824309     0.33600
H2994       H  0.53364410  0.82445733  0.12490860     0.30300
H2995       H  0.94863752  0.78066373  0.22154468     0.38200
H2996       H  0.94359213  0.81113931  0.23264077     0.33600
C2997       C  0.99534979  0.57316121  0.10955331    -0.20100
C2998       C  0.97706841  0.59323162  0.10698442     0.36100
C2999       C  0.97909565  0.61441454  0.12816512    -0.26100
C3000       C  0.99901209  0.61605057  0.15194511     0.02500
C3001       C  0.51597454  0.60017730  0.14805700     0.27400
C3002       C  0.51404878  0.57846609  0.12755103    -0.25200
N3003       N  0.95657831  0.59203728  0.08269681    -0.82600
H3004       H  0.96531815  0.63006537  0.12574070     0.13200
C3005       C  0.00174744  0.64038194  0.17097474     0.02500
N3006       N  0.53799522  0.60328107  0.16978898    -0.81200
H3007       H  0.52930982  0.56406382  0.12810447     0.18000
C3008       C  0.49788835  0.64295438  0.20000105    -0.26000
C3009       C  0.49819635  0.66573246  0.21859309     0.36000
C3010       C  0.00134281  0.68749571  0.20675645    -0.20000
C3011       C  0.00432227  0.68697281  0.17218499    -0.25300
C3012       C  0.00457452  0.66388259  0.15432808     0.27400
H3013       H  0.49647391  0.62472031  0.21258530     0.13100
N3014       N  0.49701967  0.66421316  0.25382055    -0.82600
H3015       H  0.00650771  0.70430214  0.15827274     0.18000
N3016       N  0.00750689  0.66419882  0.11905091    -0.81200
H3017       H  0.51302923  0.65346364  0.26191464     0.33600
H3018       H  0.47991725  0.65438149  0.26025319     0.38100
H3019       H  0.00889304  0.68296263  0.11028881     0.33600
H3020       H  0.02524426  0.65522529  0.11338256     0.30300
H3021       H  0.55048224  0.58747136  0.16813138     0.33600
H3022       H  0.54872416  0.61911781  0.16162721     0.30300
H3023       H  0.94458296  0.57643759  0.08852409     0.38200
H3024       H  0.94475676  0.60834004  0.08402104     0.33600
C3025       C  0.58925427  0.90502955  0.00109052    -0.20100
C3026       C  0.61187746  0.90858165  0.98154159     0.36100
C3027       C  0.63097833  0.88930422  0.98052907    -0.26100
C3028       C  0.62752246  0.86631630  0.99770798     0.02500
C3029       C  0.60467326  0.86237403  0.01647484     0.27400
C3030       C  0.58582089  0.88188784  0.01820042    -0.25200
N3031       N  0.61494905  0.93128504  0.96190606    -0.82600
H3032       H  0.64845425  0.89194383  0.96574379     0.13200
C3033       C  0.64764585  0.84617648  0.99462227     0.02500
N3034       N  0.60059893  0.83847790  0.03326168    -0.81200
H3035       H  0.56831307  0.87898823  0.03284072     0.18000
C3036       C  0.66284728  0.83963414  0.02213521    -0.26000
C3037       C  0.68250314  0.82091444  0.01966057     0.36000
C3038       C  0.68670697  0.80859355  0.98915727    -0.20000
C3039       C  0.67148788  0.81511592  0.96173685    -0.25300
C3040       C  0.65193917  0.83384774  0.96415768     0.27400
H3041       H  0.65940355  0.84924721  0.04544508     0.13100
N3042       N  0.69774143  0.81388144  0.04801553    -0.82600
H3043       H  0.67470825  0.80527512  0.93853429     0.18000
N3044       N  0.63626678  0.84031981  0.93594534    -0.81200
H3045       H  0.69189655  0.82448563  0.06864012     0.33600
H3046       H  0.71720594  0.81893895  0.04333115     0.38100
H3047       H  0.64206388  0.82964061  0.91536683     0.33600
H3048       H  0.61694014  0.83501502  0.94110337     0.30300
H3049       H  0.58282088  0.83870352  0.04606422     0.33600
H3050       H  0.59897666  0.82413531  0.01532686     0.30300
H3051       H  0.60006828  0.93122321  0.94417924     0.38200
H3052       H  0.63265614  0.93082375  0.94896130     0.33600
C3053       C  0.82171077  0.79861454  0.98489566    -0.20100
C3054       C  0.82777661  0.80870029  0.01640587     0.36100
C3055       C  0.84725806  0.82740013  0.01920116    -0.26100
C3056       C  0.86070852  0.83617553  0.99138183     0.02500
C3057       C  0.85510738  0.82582840  0.96006425     0.27400
C3058       C  0.83563481  0.80694010  0.95711734    -0.25200
N3059       N  0.81468218  0.80047205  0.04595900    -0.82600
H3060       H  0.85176444  0.83538352  0.04324152     0.13200
C3061       C  0.87986841  0.85706356  0.99529042     0.02500
N3062       N  0.86894567  0.83485547  0.93148869    -0.81200
H3063       H  0.83084898  0.79907960  0.93309982     0.18000
C3064       C  0.90654795  0.85130067  0.99586210    -0.26000
C3065       C  0.92540023  0.87073085  0.99936174     0.36000
C3066       C  0.91721296  0.89674980  0.00150018    -0.20000
C3067       C  0.89018192  0.90215269  0.00157941    -0.27900
C3068       C  0.87148177  0.88256011  0.99848619     0.27400
H3069       H  0.91263440  0.83147906  0.99379547     0.13100
N3070       N  0.95267386  0.86392693  0.00059315    -0.82600
H3071       H  0.88349473  0.92176957  0.00357709     0.18000
N3072       N  0.84396317  0.88839087  0.99829673    -0.81200
H3073       H  0.95518352  0.84426754  0.99677671     0.33600
H3074       H  0.95923049  0.86763831  0.02455159     0.38100
H3075       H  0.84097760  0.90807856  0.00114013     0.33600
H3076       H  0.83661573  0.88346856  0.97506148     0.30300
H3077       H  0.86251059  0.82522854  0.91034222     0.33600
H3078       H  0.86416456  0.85415349  0.92826999     0.30300
H3079       H  0.80113100  0.78590741  0.04143622     0.38200
H3080       H  0.80413000  0.81608418  0.05512946     0.33600
C3081       C  0.90801880  0.56961014  0.99213160    -0.20100
C3082       C  0.91275831  0.59625038  0.99536153     0.36100
C3083       C  0.89188236  0.61343619  0.99349662    -0.26100
C3084       C  0.86636756  0.60482817  0.98790497     0.02500
C3085       C  0.86135418  0.57855158  0.98353058     0.27400
C3086       C  0.88219759  0.56113245  0.98610829    -0.25200
N3087       N  0.93864980  0.60617281  0.00030314    -0.82600
H3088       H  0.89566250  0.63378656  0.99611236     0.13200
C3089       C  0.84560076  0.62413488  0.98512505     0.02500
N3090       N  0.83544232  0.56981077  0.97523059    -0.81200
H3091       H  0.87822570  0.54089949  0.98283780     0.18000
C3092       C  0.84309638  0.63741990  0.95535787    -0.26000
C3093       C  0.82607217  0.65834093  0.95275452     0.36000
C3094       C  0.81095247  0.66552490  0.98025676    -0.20000
C3095       C  0.81323441  0.65206894  0.00998876    -0.25300
C3096       C  0.83081733  0.63155591  0.01285680     0.27400
H3097       H  0.85509396  0.63190428  0.93447641     0.13100
N3098       N  0.82406667  0.67238003  0.92243586    -0.82600
H3099       H  0.80167686  0.65799006  0.03107376     0.18000
N3100       N  0.83469051  0.61908535  0.04404429    -0.81200
H3101       H  0.83622519  0.66433793  0.90444688     0.33600
H3102       H  0.83116382  0.69087455  0.92681093     0.38100
H3103       H  0.82283319  0.62739609  0.06215045     0.33600
H3104       H  0.82853123  0.60008705  0.04166533     0.30300
H3105       H  0.83528758  0.54996179  0.97172429     0.33600
H3106       H  0.82318971  0.57352250  0.99528728     0.30300
H3107       H  0.93870485  0.61697194  0.02204144     0.38200
H3108       H  0.94299419  0.61849084  0.98076118     0.33600
C3109       C  0.58321593  0.57634937  0.99501370    -0.20100
C3110       C  0.57590542  0.60114174  0.98408675     0.36100
C3111       C  0.59494475  0.62036321  0.98188380    -0.26100
C3112       C  0.62113448  0.61535673  0.98936161     0.02500
C3113       C  0.62867633  0.59078862  0.99996147     0.27400
C3114       C  0.60959852  0.57155068  0.00292490    -0.25200
N3115       N  0.54936446  0.60676543  0.97465787    -0.82600
H3116       H  0.58940868  0.63939602  0.97389817     0.13200
C3117       C  0.64036609  0.63626471  0.98614185     0.02500
N3118       N  0.65567691  0.58548216  0.00735794    -0.81200
H3119       H  0.61544045  0.55270881  0.01126260     0.18000
C3120       C  0.65386786  0.64456150  0.01428247    -0.26000
C3121       C  0.67230859  0.66435248  0.01228476     0.36000
C3122       C  0.67723643  0.67581160  0.98154115    -0.20000
C3123       C  0.66335829  0.66802491  0.95350274    -0.25300
C3124       C  0.64484606  0.64823497  0.95549228     0.27400
H3125       H  0.64995206  0.63554647  0.03780768     0.13100
N3126       N  0.68648918  0.67255315  0.04108045    -0.82600
H3127       H  0.66748003  0.67700617  0.93001014     0.18000
N3128       N  0.63083147  0.63999978  0.92658689    -0.81200
H3129       H  0.68087722  0.66179875  0.06160950     0.33600
H3130       H  0.68111394  0.69147443  0.04610071     0.38100
H3131       H  0.63632766  0.65090926  0.90613825     0.33600
H3132       H  0.63637983  0.62112291  0.92155362     0.30300
H3133       H  0.65792871  0.56651088  0.01503398     0.33600
H3134       H  0.66632361  0.58736707  0.98547664     0.30300
H3135       H  0.54536137  0.59641721  0.95312488     0.38200
H3136       H  0.54726639  0.62610428  0.96859683     0.33600
C3137       C  0.91090540  0.98324613  0.89338100    -0.20100
C3138       C  0.89072506  0.46690170  0.89263959     0.36100
C3139       C  0.86856599  0.46857982  0.87223481    -0.26100
C3140       C  0.86615037  0.98713088  0.85209507     0.02500
C3141       C  0.88872013  0.00210335  0.84570872     0.27400
C3142       C  0.91083851  0.00001245  0.86639812    -0.25200
N3143       N  0.89094848  0.44925379  0.91981629    -0.82600
H3144       H  0.85141364  0.45706544  0.87759311     0.13200
C3145       C  0.84134480  0.99094285  0.83300666     0.02500
N3146       N  0.88887000  0.01973107  0.81855532    -0.81200
H3147       H  0.92764961  0.01229045  0.86226159     0.18000
C3148       C  0.83083770  0.51380311  0.82941407    -0.26000
C3149       C  0.80777806  0.51887937  0.81176907     0.36000
C3150       C  0.79576077  0.00052143  0.79464248    -0.20000
C3151       C  0.80609916  0.97567754  0.79716825    -0.25300
C3152       C  0.82871471  0.97064972  0.81614619     0.27400
H3153       H  0.83964642  0.52876020  0.84434277     0.13100
N3154       N  0.79559956  0.54363727  0.81406594    -0.82600
H3155       H  0.79708494  0.96025656  0.78346026     0.18000
N3156       N  0.83917818  0.94514315  0.81776809    -0.81200
H3157       H  0.80625547  0.55569930  0.82974094     0.33600
H3158       H  0.77720037  0.54108709  0.82490851     0.38100
H3159       H  0.82755572  0.93242015  0.80418185     0.33600
H3160       H  0.85760080  0.94537563  0.80652815     0.30300
H3161       H  0.90676629  0.02945752  0.81733725     0.33600
H3162       H  0.88727832  0.00898512  0.79685851     0.30300
H3163       H  0.87333046  0.43906086  0.92102482     0.38200
H3164       H  0.90568592  0.43581055  0.91527040     0.33600
C3165       C  0.59175041  0.99136422  0.89686939    -0.20100
C3166       C  0.61464446  0.00511350  0.90523736     0.36100
C3167       C  0.63634792  0.00482804  0.88423806    -0.26100
C3168       C  0.63698803  0.49730815  0.85170257     0.02500
C3169       C  0.61286341  0.48792559  0.83960717     0.27400
C3170       C  0.59111081  0.48623715  0.86094935    -0.25200
N3171       N  0.61562083  0.02045765  0.93450921    -0.82600
H3172       H  0.65385657  0.01506434  0.89174444     0.13200
C3173       C  0.66051042  0.49971591  0.83023368     0.02500
N3174       N  0.61054181  0.48028062  0.80567099    -0.81200
H3175       H  0.57272122  0.47876728  0.85165805     0.18000
C3176       C  0.67033449  0.97438278  0.81574541    -0.26000
C3177       C  0.69247327  0.97718431  0.79520399     0.36000
C3178       C  0.70360286  0.00166333  0.79023280    -0.20000
C3179       C  0.69545252  0.52513051  0.80592813    -0.25300
C3180       C  0.67300619  0.52358800  0.82583830     0.27400
H3181       H  0.66246784  0.95539563  0.81999802     0.13100
N3182       N  0.70296038  0.95521358  0.77869859    -0.82600
H3183       H  0.70502084  0.54351396  0.80300425     0.18000
N3184       N  0.66266113  0.54624489  0.84130233    -0.81200
H3185       H  0.68814971  0.94717458  0.76416413     0.33600
H3186       H  0.70826277  0.94178910  0.79655933     0.38100
H3187       H  0.67412078  0.56224637  0.83557709     0.33600
H3188       H  0.64410074  0.54958916  0.83132057     0.30300
H3189       H  0.59161932  0.47361033  0.80071601     0.33600
H3190       H  0.61330122  0.49660162  0.79119972     0.30300
H3191       H  0.61923480  0.03940576  0.92751175     0.38200
H3192       H  0.63140339  0.01425520  0.94882024     0.33600
C3193       C  0.00414354  0.57722425  0.89107005    -0.20100
C3194       C  0.52322193  0.58232910  0.87151535     0.36100
C3195       C  0.52383309  0.60469882  0.85207040    -0.26100
C3196       C  0.00321653  0.62023874  0.84846080     0.02500
C3197       C  0.98901610  0.59782561  0.84021379     0.27400
C3198       C  0.98984414  0.57647648  0.86147505    -0.25200
N3199       N  0.54617929  0.56663257  0.87483527    -0.82600
H3200       H  0.54179307  0.61027844  0.83977943     0.13200
C3201       C  0.00046988  0.64467873  0.82954753     0.02500
N3202       N  0.97320117  0.59704890  0.81091408    -0.81200
H3203       H  0.97826660  0.55963408  0.85571030     0.18000
C3204       C  0.00494597  0.64524918  0.79546044    -0.26000
C3205       C  0.00337330  0.66829665  0.77745634     0.36000
C3206       C  0.99803909  0.69182295  0.79405101    -0.20000
C3207       C  0.50955195  0.69083859  0.82834349    -0.25300
C3208       C  0.51038435  0.66765098  0.84598660     0.27400
H3209       H  0.01001830  0.62763122  0.78283980     0.13100
N3210       N  0.00792247  0.66786222  0.74244762    -0.82600
H3211       H  0.51595931  0.70795391  0.84089914     0.18000
N3212       N  0.51892379  0.66726649  0.87977810    -0.81200
H3213       H  0.99020885  0.67192016  0.73071875     0.33600
H3214       H  0.01327070  0.64951199  0.73459235     0.38100
H3215       H  0.52408081  0.68566803  0.88769678     0.33600
H3216       H  0.50304617  0.66155493  0.89428765     0.30300
H3217       H  0.96426607  0.57912246  0.80827092     0.33600
H3218       H  0.95813285  0.61039754  0.81381234     0.30300
H3219       H  0.55231556  0.56766033  0.89939529     0.38200
H3220       H  0.56150831  0.57393037  0.86055585     0.33600
C3221       C  0.00302200  0.90244200  0.89360757    -0.20100
C3222       C  0.98610912  0.90309985  0.86598391     0.36100
C3223       C  0.98496518  0.88182088  0.84452395    -0.26100
C3224       C  0.00043499  0.86007179  0.85003305     0.02500
C3225       C  0.52438422  0.86178842  0.87547249     0.27400
C3226       C  0.52422757  0.88310971  0.89674421    -0.25200
N3227       N  0.96908248  0.92464084  0.86085930    -0.82600
H3228       H  0.97164782  0.88197414  0.82372762     0.13200
C3229       C  0.99749871  0.83714380  0.82856127     0.02500
N3230       N  0.54363449  0.84195543  0.87940961    -0.81200
H3231       H  0.53869894  0.88451501  0.91622901     0.18000
C3232       C  0.52297436  0.83009988  0.80776074    -0.26000
C3233       C  0.52225651  0.80708083  0.78957301     0.36000
C3234       C  0.99602504  0.79046679  0.79290950    -0.20000
C3235       C  0.97661678  0.79627496  0.81632518    -0.25300
C3236       C  0.97716515  0.81941818  0.83421254     0.27400
H3237       H  0.53943067  0.84306337  0.80506002     0.13100
N3238       N  0.54324601  0.80065165  0.76747186    -0.82600
H3239       H  0.96126105  0.78242378  0.82111331     0.18000
N3240       N  0.95747201  0.82481660  0.85859467    -0.81200
H3241       H  0.55706735  0.81543878  0.76665946     0.33600
H3242       H  0.55284102  0.78470567  0.77721480     0.38100
H3243       H  0.94382649  0.80989245  0.85971338     0.33600
H3244       H  0.96668552  0.82551401  0.88160291     0.30300
H3245       H  0.55657303  0.84652771  0.89853642     0.33600
H3246       H  0.53380302  0.82527824  0.88652068     0.30300
H3247       H  0.98074729  0.94013793  0.85375454     0.38200
H3248       H  0.95635843  0.92112436  0.84115970     0.33600
C3249       C  0.84136251  0.75829730  0.60382450    -0.20100
C3250       C  0.86665903  0.76631102  0.59324763     0.36100
C3251       C  0.88809990  0.76439472  0.61487237    -0.26100
C3252       C  0.88501140  0.75503741  0.64688947     0.02500
C3253       C  0.85986658  0.74788887  0.65798939     0.27400
C3254       C  0.83826551  0.74979717  0.63645814    -0.25200
N3255       N  0.87062693  0.77635834  0.56062100    -0.82600
H3256       H  0.90746973  0.77000826  0.60663532     0.13200
C3257       C  0.90861912  0.75179657  0.66787373     0.02500
N3258       N  0.85643392  0.73844287  0.69095299    -0.81200
H3259       H  0.81909930  0.74375472  0.64488440     0.18000
C3260       C  0.91659673  0.77164830  0.68901701    -0.26000
C3261       C  0.93887566  0.76896048  0.70919194     0.36000
C3262       C  0.95357515  0.74614923  0.70812333    -0.20000
C3263       C  0.94583259  0.72653577  0.68633171    -0.25300
C3264       C  0.92352008  0.72912696  0.66622208     0.27400
H3265       H  0.90525536  0.78915225  0.69020733     0.13100
N3266       N  0.94578869  0.78895924  0.73179536    -0.82600
H3267       H  0.95705098  0.70894525  0.68540600     0.18000
N3268       N  0.91591868  0.70887262  0.64408510    -0.81200
H3269       H  0.92988054  0.79207137  0.74752446     0.33600
H3270       H  0.94896216  0.80569705  0.71828139     0.38100
H3271       H  0.92908006  0.69359703  0.64557701     0.33600
H3272       H  0.89778112  0.70184421  0.65191736     0.30300
H3273       H  0.83671570  0.73424370  0.69539912     0.33600
H3274       H  0.86656634  0.72112605  0.69278562     0.30300
H3275       H  0.86029161  0.79358417  0.55901633     0.38200
H3276       H  0.89034903  0.78085816  0.55669367     0.33600
C3277       C  0.54761100  0.74909670  0.71447290    -0.20100
C3278       C  0.54533345  0.75622158  0.68119137     0.36100
C3279       C  0.56806714  0.75921666  0.66191577    -0.26100
C3280       C  0.59314938  0.75512081  0.67536160     0.02500
C3281       C  0.59544909  0.74947005  0.70923473     0.27400
C3282       C  0.57269483  0.74659397  0.72836628    -0.25200
N3283       N  0.52002630  0.75919935  0.66649274    -0.82600
H3284       H  0.56610587  0.76395975  0.63604369     0.13200
C3285       C  0.61659797  0.75500163  0.65337586     0.02500
N3286       N  0.62081657  0.74576221  0.72384644    -0.81200
H3287       H  0.57450648  0.74160801  0.75417875     0.18000
C3288       C  0.63796922  0.77123460  0.66010172    -0.26000
C3289       C  0.66044032  0.77127461  0.63984978     0.36000
C3290       C  0.66125381  0.75515130  0.61184861    -0.20000
C3291       C  0.64009666  0.73860615  0.60555782    -0.25300
C3292       C  0.61798632  0.73811107  0.62619415     0.27400
H3293       H  0.63697280  0.78411121  0.68105462     0.13100
N3294       N  0.68175515  0.78850984  0.64669445    -0.82600
H3295       H  0.64081177  0.72603720  0.58425511     0.18000
N3296       N  0.59691938  0.72048248  0.61968211    -0.81200
H3297       H  0.67736596  0.80013106  0.66698516     0.33600
H3298       H  0.69788499  0.77744723  0.65359093     0.38100
H3299       H  0.60094261  0.70942629  0.59875658     0.33600
H3300       H  0.59586286  0.70779094  0.63953317     0.30300
H3301       H  0.61908470  0.74199817  0.74905704     0.33600
H3302       H  0.62907885  0.72944038  0.71310973     0.30300
H3303       H  0.51881233  0.77775829  0.65701157     0.38200
H3304       H  0.51854408  0.74632175  0.64679407     0.33600
C3305       C  0.74693189  0.66762245  0.60335122    -0.20100
C3306       C  0.74292708  0.66934916  0.63782531     0.36100
C3307       C  0.74370032  0.64685461  0.65712018    -0.26100
C3308       C  0.74842459  0.62275624  0.64276800     0.02500
C3309       C  0.75273491  0.62103138  0.60863705     0.27400
C3310       C  0.75151040  0.64324152  0.58934560    -0.25200
N3311       N  0.73800823  0.69371587  0.65317250    -0.82600
H3312       H  0.74058260  0.64805975  0.68349669     0.13200
C3313       C  0.74985197  0.59941922  0.66366791     0.02500
N3314       N  0.75888559  0.59671727  0.59380172    -0.81200
H3315       H  0.75467307  0.64138905  0.56307765     0.18000
C3316       C  0.73081860  0.58020626  0.66044402    -0.26000
C3317       C  0.73213566  0.55748549  0.67905155     0.36000
C3318       C  0.75294219  0.55369098  0.70181119    -0.20000
C3319       C  0.77209766  0.57324602  0.70444804    -0.25300
C3320       C  0.77086151  0.59573961  0.68547615     0.27400
H3321       H  0.71476639  0.58297078  0.64333979     0.13100
N3322       N  0.71204201  0.53841101  0.67521472    -0.82600
H3323       H  0.78824676  0.57171101  0.72126447     0.18000
N3324       N  0.79106688  0.61487977  0.68804394    -0.81200
H3325       H  0.70365141  0.53986185  0.65177133     0.33600
H3326       H  0.69714388  0.54272596  0.69196739     0.38100
H3327       H  0.80517136  0.60953385  0.70538184     0.33600
H3328       H  0.80064114  0.61573925  0.66528067     0.30300
H3329       H  0.76142134  0.59862354  0.56834614     0.33600
H3330       H  0.77694212  0.59080361  0.60324416     0.30300
H3331       H  0.71992124  0.70028153  0.64457271     0.38200
H3332       H  0.73611695  0.69165885  0.67869050     0.33600
C3333       C  0.75248843  0.84457169  0.61086309    -0.20100
C3334       C  0.76976684  0.86543966  0.60653199     0.36100
C3335       C  0.76938656  0.88606986  0.62878238    -0.26100
C3336       C  0.75166040  0.88661955  0.65512754     0.02500
C3337       C  0.73431756  0.86587084  0.65973044     0.27400
C3338       C  0.73510156  0.84483531  0.63775880    -0.25200
N3339       N  0.78783562  0.86570364  0.57950081    -0.82600
H3340       H  0.78259901  0.90206829  0.62500130     0.13200
C3341       C  0.75047321  0.90986451  0.67627824     0.02500
N3342       N  0.71568909  0.86655887  0.68627637    -0.81200
H3343       H  0.72154666  0.82905442  0.64095355     0.18000
C3344       C  0.73009867  0.92740207  0.67142484    -0.26000
C3345       C  0.72947513  0.95078833  0.68868186     0.36000
C3346       C  0.74976540  0.95682402  0.71107636    -0.20000
C3347       C  0.76963938  0.93887063  0.71683016    -0.25300
C3348       C  0.77016766  0.91536076  0.69965988     0.27400
H3349       H  0.71497018  0.92304441  0.65351456     0.13100
N3350       N  0.70857356  0.96869777  0.68316645    -0.82600
H3351       H  0.78533552  0.94359824  0.73364985     0.18000
N3352       N  0.79084029  0.89725245  0.70533141    -0.81200
H3353       H  0.69825099  0.97063857  0.70528708     0.33600
H3354       H  0.69532823  0.96149132  0.66578768     0.38100
H3355       H  0.80378651  0.90417530  0.72325668     0.33600
H3356       H  0.78232418  0.88067581  0.71502701     0.30300
H3357       H  0.70411526  0.85001916  0.68611476     0.33600
H3358       H  0.72621112  0.86643775  0.70838924     0.30300
H3359       H  0.78418742  0.88206389  0.56542738     0.38200
H3360       H  0.80680081  0.86716424  0.58905235     0.33600
C3361       C  0.82964486  0.66782436  0.49804597    -0.20100
C3362       C  0.82230847  0.64230167  0.50575653     0.36100
C3363       C  0.84149262  0.62317029  0.50764759    -0.26100
C3364       C  0.86776414  0.62877909  0.50118998     0.02500
C3365       C  0.87515931  0.65377173  0.49224208     0.27400
C3366       C  0.85613769  0.67312338  0.49135303    -0.25200
N3367       N  0.79554633  0.63557365  0.51193065    -0.82600
H3368       H  0.83580558  0.60375307  0.51383499     0.13200
C3369       C  0.88724068  0.60801814  0.50169466     0.02500
N3370       N  0.90178745  0.65915754  0.48293320    -0.81200
H3371       H  0.86208765  0.69238998  0.48500415     0.18000
C3372       C  0.89073892  0.59333790  0.47312761    -0.26000
C3373       C  0.91062168  0.57501251  0.47110154     0.36000
C3374       C  0.92705881  0.57104241  0.49875304    -0.20000
C3375       C  0.92289509  0.58513559  0.52777826    -0.25300
C3376       C  0.90314052  0.60374127  0.52951039     0.27400
H3377       H  0.87833736  0.59667601  0.45187786     0.13100
N3378       N  0.91364674  0.56117154  0.44061615    -0.82600
H3379       H  0.93536439  0.58176721  0.54894962     0.18000
N3380       N  0.89899519  0.61808678  0.55937015    -0.81200
H3381       H  0.91812532  0.57449905  0.42226272     0.33600
H3382       H  0.92935277  0.54844914  0.44139794     0.38100
H3383       H  0.91209871  0.61221666  0.57765668     0.33600
H3384       H  0.90328454  0.63728798  0.55459324     0.30300
H3385       H  0.90382200  0.67830968  0.47590934     0.33600
H3386       H  0.91364064  0.65666175  0.50365373     0.30300
H3387       H  0.79005829  0.62146621  0.49491163     0.38200
H3388       H  0.79445747  0.62758929  0.53548488     0.33600
C3389       C  0.65677402  0.67730120  0.50376029    -0.20100
C3390       C  0.62985783  0.68386320  0.50373109     0.36100
C3391       C  0.61090791  0.66447229  0.50481876    -0.26100
C3392       C  0.61825905  0.63870505  0.50632250     0.02500
C3393       C  0.64488721  0.63203075  0.50780962     0.27400
C3394       C  0.66387122  0.65132318  0.50612223    -0.25200
N3395       N  0.62152910  0.71003379  0.50235015    -0.82600
H3396       H  0.59033354  0.66953009  0.50392672     0.13200
C3397       C  0.59799131  0.61869140  0.50479699     0.02500
N3398       N  0.65245658  0.60564194  0.51112600    -0.81200
H3399       H  0.68432755  0.64589219  0.50687233     0.18000
C3400       C  0.59786780  0.60194488  0.47776269    -0.26000
C3401       C  0.57943242  0.58227985  0.47534474     0.36000
C3402       C  0.56046103  0.57960186  0.50053262    -0.20000
C3403       C  0.56046061  0.59648727  0.52747791    -0.25300
C3404       C  0.57926781  0.61597979  0.53000658     0.27400
H3405       H  0.61230322  0.60418641  0.45837291     0.13100
N3406       N  0.58044522  0.56574306  0.44694133    -0.82600
H3407       H  0.54603993  0.59406418  0.54683208     0.18000
N3408       N  0.57978844  0.63269996  0.55821660    -0.81200
H3409       H  0.59793480  0.55539185  0.44817434     0.33600
H3410       H  0.56521156  0.55241057  0.44671601     0.38100
H3411       H  0.56462725  0.62811129  0.57450410     0.33600
H3412       H  0.59731824  0.62935315  0.57081593     0.30300
H3413       H  0.67285411  0.60394117  0.51186591     0.33600
H3414       H  0.64550103  0.59921207  0.53389799     0.30300
H3415       H  0.60972626  0.71231812  0.48150015     0.38200
H3416       H  0.61011811  0.71380644  0.52321005     0.33600
C3417       C  0.57133373  0.94905034  0.50180690    -0.20100
C3418       C  0.57322988  0.93200589  0.52845620     0.36100
C3419       C  0.59318041  0.91367310  0.52885564    -0.26100
C3420       C  0.61092417  0.91170261  0.50261074     0.02500
C3421       C  0.60882772  0.92862101  0.47548402     0.27400
C3422       C  0.58924822  0.94739218  0.47572607    -0.25200
N3423       N  0.55450182  0.93294802  0.55471919    -0.82600
H3424       H  0.59443975  0.90045824  0.54935737     0.13200
C3425       C  0.62998678  0.89052354  0.50322194     0.02500
N3426       N  0.62527379  0.92663350  0.44679953    -0.81200
H3427       H  0.58734766  0.96015550  0.45483553     0.18000
C3428       C  0.62119412  0.86587259  0.49549456    -0.26000
C3429       C  0.63826123  0.84484504  0.49605055     0.36000
C3430       C  0.66501076  0.84869934  0.50427495    -0.20000
C3431       C  0.67359332  0.87365138  0.51234365    -0.25300
C3432       C  0.65632003  0.89458409  0.51193134     0.27400
H3433       H  0.60077867  0.86306070  0.48905832     0.13100
N3434       N  0.62844523  0.81983093  0.48765204    -0.82600
H3435       H  0.69386909  0.87691285  0.51904926     0.18000
N3436       N  0.66525089  0.91981876  0.52080418    -0.81200
H3437       H  0.60912236  0.82091094  0.47922248     0.33600
H3438       H  0.62773164  0.80916527  0.50940900     0.38100
H3439       H  0.68508739  0.91946146  0.52719792     0.33600
H3440       H  0.66377006  0.93140835  0.49992708     0.30300
H3441       H  0.63632665  0.94346064  0.44527954     0.33600
H3442       H  0.63853605  0.91152434  0.44860512     0.30300
H3443       H  0.54516423  0.91513062  0.55593037     0.38200
H3444       H  0.56464125  0.93580961  0.57681306     0.33600
C3445       C  0.83849404  0.84016529  0.49682484    -0.20100
C3446       C  0.86488232  0.83421030  0.48893171     0.36100
C3447       C  0.88380128  0.85379901  0.48940034    -0.26100
C3448       C  0.87677848  0.87910366  0.49656213     0.02500
C3449       C  0.85059992  0.88526490  0.50349556     0.27400
C3450       C  0.83174688  0.86579779  0.50357402    -0.25200
N3451       N  0.87239767  0.80858342  0.47995733    -0.82600
H3452       H  0.90405044  0.84945972  0.48364985     0.13200
C3453       C  0.89692373  0.89926668  0.49644334     0.02500
N3454       N  0.84335036  0.91131057  0.51059434    -0.81200
H3455       H  0.81167692  0.87078716  0.50932132     0.18000
C3456       C  0.89741360  0.91677258  0.47037359    -0.26000
C3457       C  0.91556317  0.93682477  0.46982333     0.36000
C3458       C  0.93340755  0.93947616  0.49635045    -0.20000
C3459       C  0.93285955  0.92189801  0.52243385    -0.25300
C3460       C  0.91472493  0.90173239  0.52273378     0.27400
H3461       H  0.88360950  0.91473455  0.45022229     0.13100
N3462       N  0.91559899  0.95360161  0.44175159    -0.82600
H3463       H  0.94655358  0.92409286  0.54267324     0.18000
N3464       N  0.91407111  0.88392060  0.54967969    -0.81200
H3465       H  0.89810122  0.96397673  0.44219313     0.33600
H3466       H  0.93088785  0.96685534  0.44260078     0.38100
H3467       H  0.92865106  0.88833232  0.56690008     0.33600
H3468       H  0.89613149  0.88620670  0.56176227     0.30300
H3469       H  0.82319095  0.91271410  0.51476131     0.33600
H3470       H  0.85256056  0.91661556  0.53260745     0.30300
H3471       H  0.86328597  0.80423417  0.45753110     0.38200
H3472       H  0.89256259  0.80753725  0.47564044     0.33600
C3473       C  0.65412900  0.76023218  0.39452001    -0.20100
C3474       C  0.65678366  0.75618883  0.36002526     0.36100
C3475       C  0.63415081  0.75423609  0.33999712    -0.26100
C3476       C  0.60889847  0.75639613  0.35340063     0.02500
C3477       C  0.60611101  0.76098158  0.38737737     0.27400
C3478       C  0.62853387  0.76274123  0.40747994    -0.25200
N3479       N  0.68226083  0.75356399  0.34535732    -0.82600
H3480       H  0.63617720  0.75068101  0.31379210     0.13200
C3481       C  0.58535086  0.75263683  0.33210858     0.02500
N3482       N  0.58037635  0.76365665  0.40136928    -0.81200
H3483       H  0.62580118  0.76599694  0.43362777     0.18000
C3484       C  0.57055361  0.73011898  0.33546191    -0.26000
C3485       C  0.54827676  0.72569078  0.31589715     0.36000
C3486       C  0.54052185  0.74395088  0.29234059    -0.20000
C3487       C  0.55468645  0.76694565  0.28977268    -0.25300
C3488       C  0.57706465  0.77147904  0.30948282     0.27400
H3489       H  0.57643382  0.71581671  0.35329107     0.13100
N3490       N  0.53330665  0.70272092  0.32025779    -0.82600
H3491       H  0.54873201  0.78102880  0.27169597     0.18000
N3492       N  0.59148028  0.79502033  0.30654445    -0.81200
H3493       H  0.52692167  0.70213146  0.34473569     0.33600
H3494       H  0.54568971  0.68708642  0.31629861     0.38100
H3495       H  0.58288474  0.80684050  0.28882615     0.33600
H3496       H  0.59000176  0.80470269  0.32906552     0.30300
H3497       H  0.58152232  0.76660834  0.42682972     0.33600
H3498       H  0.57198883  0.78016587  0.39138394     0.30300
H3499       H  0.69143242  0.77145609  0.34671453     0.38200
H3500       H  0.68066006  0.74919136  0.32026948     0.33600
C3501       C  0.83718302  0.75350742  0.39043935    -0.20100
C3502       C  0.85932025  0.73820946  0.39815830     0.36100
C3503       C  0.88153670  0.73876358  0.37772283    -0.26100
C3504       C  0.88243790  0.75422692  0.34963870     0.02500
C3505       C  0.86058256  0.76967683  0.34190398     0.27400
C3506       C  0.83799711  0.76888238  0.36208712    -0.25200
N3507       N  0.85914399  0.72196462  0.42673978    -0.82600
H3508       H  0.89815612  0.72666262  0.38340939     0.13200
C3509       C  0.90568403  0.75242126  0.32742572     0.02500
N3510       N  0.86170828  0.78652642  0.31399775    -0.81200
H3511       H  0.82143694  0.78104922  0.35642459     0.18000
C3512       C  0.90214633  0.74314743  0.29530497    -0.26000
C3513       C  0.92356943  0.73866868  0.27426408     0.36000
C3514       C  0.94941333  0.74337506  0.28570763    -0.20000
C3515       C  0.95286714  0.75345969  0.31756800    -0.25300
C3516       C  0.93130885  0.75794969  0.33857157     0.27400
H3517       H  0.88249105  0.73881181  0.28684869     0.13100
N3518       N  0.91901859  0.72919157  0.24143190    -0.82600
H3519       H  0.97251891  0.75713221  0.32650554     0.18000
N3520       N  0.93533010  0.76782685  0.37129123    -0.81200
H3521       H  0.89901457  0.72633436  0.23723770     0.33600
H3522       H  0.92508608  0.74324602  0.22484662     0.38100
H3523       H  0.95528689  0.77073349  0.37578661     0.33600
H3524       H  0.92643389  0.78582787  0.37249653     0.30300
H3525       H  0.84421516  0.79675373  0.31173655     0.33600
H3526       H  0.87643869  0.80001494  0.31861649     0.30300
H3527       H  0.84498755  0.70777058  0.42289138     0.38200
H3528       H  0.87708995  0.71257269  0.42942502     0.33600
C3529       C  0.75277798  0.84790476  0.39420030    -0.20100
C3530       C  0.76422605  0.87143121  0.40445215     0.36100
C3531       C  0.76421518  0.89242602  0.38298284    -0.26100
C3532       C  0.75345911  0.89061613  0.35133407     0.02500
C3533       C  0.74351012  0.86691394  0.34018739     0.27400
C3534       C  0.74326450  0.84575566  0.36174149    -0.25200
N3535       N  0.77590920  0.87403272  0.43658789    -0.82600
H3536       H  0.77243718  0.91053716  0.39108740     0.13200
C3537       C  0.75165717  0.91427662  0.33120503     0.02500
N3538       N  0.73316121  0.86461276  0.30736352    -0.81200
H3539       H  0.73485754  0.82778581  0.35348065     0.18000
C3540       C  0.76532385  0.91618303  0.30133395    -0.26000
C3541       C  0.76562046  0.93922956  0.28342680     0.36000
C3542       C  0.75187749  0.96081871  0.29548594    -0.20000
C3543       C  0.73751456  0.95844720  0.32486803    -0.25300
C3544       C  0.73727205  0.93550009  0.34280525     0.27400
H3545       H  0.77649855  0.89995446  0.29239683     0.13100
N3546       N  0.78073646  0.94073464  0.25379231    -0.82600
H3547       H  0.72638792  0.97464428  0.33395946     0.18000
N3548       N  0.72261959  0.93366793  0.37298657    -0.81200
H3549       H  0.80004955  0.93575246  0.25943470     0.33600
H3550       H  0.77349686  0.92704736  0.23727043     0.38100
H3551       H  0.71330100  0.95101135  0.37831122     0.33600
H3552       H  0.70783035  0.92006955  0.36937506     0.30300
H3553       H  0.72665101  0.84591728  0.30294898     0.33600
H3554       H  0.71671383  0.87644842  0.30579641     0.30300
H3555       H  0.79228157  0.86203855  0.43730025     0.38200
H3556       H  0.78282572  0.89266995  0.44041546     0.33600
C3557       C  0.74856036  0.55829866  0.28898028    -0.20100
C3558       C  0.72695867  0.56386261  0.30992200     0.36100
C3559       C  0.72609348  0.58697276  0.32790046    -0.26100
C3560       C  0.74655066  0.60482847  0.32599946     0.02500
C3561       C  0.76815511  0.59953223  0.30555429     0.27400
C3562       C  0.76899450  0.57651658  0.28739903    -0.25200
N3563       N  0.70581240  0.54594733  0.31318518    -0.82600
H3564       H  0.70957814  0.59074696  0.34397464     0.13200
C3565       C  0.74629604  0.62816813  0.34725777     0.02500
N3566       N  0.78938131  0.61759922  0.30356770    -0.81200
H3567       H  0.78607985  0.57317368  0.27253157     0.18000
C3568       C  0.76423038  0.62980840  0.37333024    -0.26000
C3569       C  0.76502871  0.65135816  0.39415312     0.36000
C3570       C  0.74741067  0.67184649  0.38893071    -0.20000
C3571       C  0.72995683  0.67061305  0.36217600    -0.25300
C3572       C  0.72912768  0.64884962  0.34136099     0.27400
H3573       H  0.77760852  0.61405211  0.37752736     0.13100
N3574       N  0.78371401  0.65255168  0.42067785    -0.82600
H3575       H  0.71643051  0.68627027  0.35816033     0.18000
N3576       N  0.71085189  0.64755202  0.31446458    -0.81200
H3577       H  0.79518944  0.63598533  0.42125248     0.33600
H3578       H  0.79645610  0.66779376  0.41588454     0.38100
H3579       H  0.69955124  0.66422434  0.31353243     0.33600
H3580       H  0.72166547  0.64693587  0.29259416     0.30300
H3581       H  0.80406975  0.61087118  0.28782434     0.33600
H3582       H  0.78204919  0.63433693  0.29293522     0.30300
H3583       H  0.68847203  0.55513411  0.30632010     0.38200
H3584       H  0.70425685  0.54086054  0.33801483     0.33600
loop_ 
_geom_bond_atom_site_label_1 
_geom_bond_atom_site_label_2 
_geom_bond_distance 
_geom_bond_site_symmetry_2 
_ccdc_geom_bond_type 
O1           C12   1.297       .  A
O1          Eu37   2.493       .  S
O2           C13   1.298       .  A
O2          Eu36   2.499       .  S
O3           C14   1.288       .  A
O3           Eu9   2.443       .  S
O4           C15   1.290       .  A
O4           Eu9   2.452       .  S
O5           C15   1.288       .  A
O5          Eu39   2.445       .  S
O6           C14   1.291       .  A
O6          Eu38   2.455       .  S
O7           C13   1.290       .  A
O7           Eu9   2.447       .  S
O8           C12   1.287       .  A
O8           Eu9   2.428       .  S
Eu9          O19   2.350       .  S
Eu9          O11   2.350       .  S
Eu9          O10   2.337       .  S
Eu9          O17   2.346       .  S
O10         Eu39   2.350       .  S
O10         Eu36   2.362       .  S
O11         Eu37   2.362       .  S
O11         Eu38   2.341       .  S
C12         C882   1.476       .  S
C13         C617   1.504       .  S
C14         C673   1.485       .  S
C15         C701   1.483       .  S
H16          O17   0.965       .  S
O17         Eu38   2.356       .  S
O17         Eu36   2.361       .  S
H18          O19   0.966       .  S
O19         Eu37   2.376       .  S
O19         Eu39   2.351       .  S
O20          C43   1.294       .  A
O20         Eu36   2.477       .  S
O21          C44   1.300       .  A
O21         Eu37   2.507       .  S
O22          C45   1.287       .  A
O22         Eu38   2.433       .  S
O23          C46   1.293       .  A
O23         Eu39   2.461       .  S
O24          C47   1.292       .  A
O24         Eu39   2.459       .  S
O25          C48   1.289       .  A
O25         Eu38   2.446       .  S
O26          C49   1.288       .  A
O26         Eu40   2.441       .  S
O27          C50   1.286       .  A
O27         Eu40   2.429       .  S
O28          C49   1.289       .  A
O28         Eu38   2.456       .  S
O29          C50   1.288       .  A
O29         Eu39   2.435       .  S
O30          C45   1.300       .  A
O30         Eu36   2.506       .  S
O31          C48   1.300       .  A
O31         Eu37   2.509       .  S
O32          C47   1.299       .  A
O32         Eu37   2.503       .  S
O33          C46   1.297       .  A
O33         Eu36   2.496       .  S
O34          C43   1.290       .  A
O34         Eu40   2.454       .  S
O35          C44   1.288       .  A
O35         Eu40   2.439       .  S
Eu36         O54   2.371       .  S
Eu36         O42   2.364       .  S
Eu37         O41   2.362       .  S
Eu37         O52   2.369       .  S
Eu38         O52   2.349       .  S
Eu38         O42   2.347       .  S
Eu39         O41   2.347       .  S
Eu39         O54   2.356       .  S
Eu40         O41   2.349       .  S
Eu40         O52   2.351       .  S
Eu40         O54   2.350       .  S
Eu40         O42   2.340       .  S
C43         C645   1.482       .  S
C44         C841   1.500       .  S
C45         C561   1.498       .  S
C46         C602   1.497       .  S
C47         C785   1.506       .  S
C48         C813   1.497       .  S
C49         C757   1.490       .  S
C50         C742   1.471       .  S
H51          O52   0.966       .  S
H53          O54   0.964       .  S
N55          H87   1.040       .  S
N55          C59   1.349       .  A
N55         C956   1.351   1_545  A
N56          C64   1.349       .  A
N56        C1855   1.346       .  A
N57          H88   1.040       .  S
N57          C61   1.351       .  A
N57         C958   1.346   1_545  A
N58          C66   1.347       .  A
N58        C1857   1.348       .  A
C59          C67   1.387       .  A
C59          C75   1.410       .  A
C60         N951   1.351       .  A
C60          C76   1.412       .  A
C60          C68   1.387       .  A
C61          C69   1.386       .  A
C61          C78   1.409       .  A
C62         N953   1.349       .  A
C62          C77   1.410       .  A
C62          C70   1.387       .  A
C63        N1848   1.346   1_455  A
C63          C75   1.406       .  A
C63          C71   1.387       .  A
C64          C78   1.408       .  A
C64          C72   1.385       .  A
C65        N1850   1.348       .  A
C65          C73   1.388       .  A
C65          C76   1.409       .  A
C66          C74   1.386       .  A
C66          C77   1.406       .  A
C67         C964   1.377       .  A
C67          H79   1.082       .  S
C68         C963   1.374       .  A
C68          H80   1.082       .  S
C69         C966   1.377   1_545  A
C69          H81   1.082       .  S
C70         C965   1.374       .  A
C70          H82   1.082       .  S
C71        C1864   1.373   1_455  A
C71          H83   1.082       .  S
C72        C1863   1.373       .  A
C72          H84   1.082       .  S
C73        C1866   1.370   1_455  A
C73          H85   1.082       .  S
C74        C1865   1.373       .  A
C74          H86   1.082       .  S
C75         C714   1.473       .  S
C76         C729   1.472       .  S
C77         C770   1.475       .  S
C78         C686   1.482       .  S
O89         C100   1.293       .  A
O89        Eu125   2.469       .  S
O90         C101   1.291       .  A
O90        Eu124   2.457       .  S
O91         C102   1.288       .  A
O91       Eu1889   2.435       .  S
O92         C103   1.286       .  A
O92         Eu97   2.429       .  S
O93         C103   1.293       .  A
O93        Eu127   2.466       .  S
O94         C102   1.289   1_554  A
O94        Eu126   2.450       .  S
O95         C101   1.293       .  A
O95         Eu97   2.462   1_554  S
O96         C100   1.292       .  A
O96         Eu97   2.465       .  S
Eu97       O1883   2.445       .  S
Eu97        O107   2.349       .  S
Eu97         O98   2.347   1_556  S
Eu97       O1891   2.348       .  S
Eu97       O1897   2.349   1_556  S
O98        Eu127   2.343   1_554  S
O98        Eu124   2.355       .  S
O99        Eu126   2.348   1_556  S
O99       Eu1889   2.348       .  S
O99       Eu1917   2.363       .  S
C100        C533   1.476       .  S
C101        C294   1.489       .  S
C102        C337   1.480   1_556  S
C103        C378   1.487       .  S
H104        O105   0.965       .  S
O105       Eu126   2.346       .  S
O105      Eu1889   2.341   1_554  S
O105      Eu1916   2.358   1_455  S
H106        O107   0.965       .  S
O107       Eu125   2.367       .  S
O107       Eu127   2.347       .  S
O108        C131   1.294       .  A
O108      Eu1020   2.476   1_545  S
O109        C132   1.294       .  A
O109      Eu1021   2.482   1_545  S
O110        C133   1.289       .  A
O110       Eu126   2.438       .  S
O111        C134   1.289       .  A
O111       Eu127   2.444   1_554  S
O112       C1031   1.288       .  A
O112       Eu127   2.437       .  S
O113       C1032   1.288       .  A
O113       Eu126   2.438   1_556  S
O114        C137   1.288       .  A
O114      Eu1920   2.443   1_455  S
O115        C138   1.288       .  A
O115       Eu128   2.441       .  S
O116        C137   1.290       .  A
O116      Eu1022   2.451   1_545  S
O117        C138   1.292       .  A
O117      Eu1023   2.467   1_545  S
O118        C133   1.299       .  A
O118      Eu1916   2.505   1_455  S
O119        C136   1.299       .  A
O119      Eu2813   2.504       .  S
O120        C135   1.293       .  A
O120      Eu1021   2.473       .  S
O121        C134   1.298       .  A
O121       Eu124   2.498       .  S
O122        C131   1.289       .  A
O122       Eu128   2.448       .  S
O123        C132   1.291       .  A
O123       Eu128   2.454   1_556  S
Eu124      O1004   2.466       .  S
Eu124      O1910   2.489       .  S
Eu124      O1897   2.372       .  S
Eu124      O1038   2.362       .  S
Eu124      O2818   2.356       .  S
Eu125      O1005   2.492       .  S
Eu125      O2807   2.500       .  S
Eu125      O1016   2.482       .  S
Eu125      O1891   2.367       .  S
Eu125      O1025   2.362       .  S
Eu125      O2828   2.351       .  S
Eu126      O1012   2.451       .  S
Eu126      O1036   2.342   1_554  S
Eu126      O1026   2.345       .  S
Eu127      O1013   2.466       .  S
Eu127      O1025   2.352       .  S
Eu127      O1038   2.349   1_556  S
Eu128      O1906   2.433       .  S
Eu128       O129   2.344   1_554  S
Eu128       O142   2.347       .  S
Eu128      O1932   2.349   1_554  S
Eu128      O1922   2.351       .  S
O129      Eu1021   2.362   1_545  S
O129      Eu1023   2.348   1_546  S
O130      Eu2812   2.356   1_445  S
O130      Eu1022   2.345   1_545  S
O130      Eu1920   2.344   1_455  S
C131        C309   1.476       .  S
C132        C505   1.485       .  S
C133        C238   1.494       .  S
C134        C253   1.493       .  S
C135       O1008   1.289       .  A
C135       C1345   1.478       .  S
C136       O1009   1.288       .  A
C136       C1373   1.501       .  S
C137        C421   1.486       .  S
C138        C393   1.482       .  S
H139        O140   0.966       .  S
O140      Eu2813   2.362   1_545  S
O140      Eu1022   2.351   1_546  S
O140      Eu1920   2.351   1_456  S
H141        O142   0.966       .  S
O142      Eu1020   2.366   1_545  S
O142      Eu1023   2.353   1_545  S
N143        H175   1.037       .  S
N143        C148   1.349       .  A
N143        C147   1.348       .  A
N144        C151   1.351       .  A
N144        C152   1.351       .  A
N145        H176   1.036       .  S
N145        C150   1.352       .  A
N145        C149   1.352       .  A
N146        C153   1.350       .  A
N146        C154   1.348       .  A
C147        C155   1.387       .  A
C147        C163   1.408       .  A
C148        C164   1.408       .  A
C148        C156   1.387       .  A
C149        C157   1.389       .  A
C149        C166   1.417       .  A
C150        C165   1.414       .  A
C150        C158   1.386       .  A
C151        C163   1.412       .  A
C151        C159   1.386       .  A
C152        C166   1.414       .  A
C152        C160   1.387       .  A
C153        C161   1.385       .  A
C153        C164   1.407       .  A
C154        C162   1.387       .  A
C154        C165   1.410       .  A
C155        C156   1.375       .  A
C155        H167   1.082       .  S
C156        H168   1.082       .  S
C157        C158   1.375       .  A
C157        H169   1.082       .  S
C158        H170   1.082       .  S
C159        C160   1.372       .  A
C159        H171   1.082       .  S
C160        H172   1.082       .  S
C161        C162   1.370       .  A
C161        H173   1.082   1_554  S
C162        H174   1.082   1_554  S
C163        C365   1.476       .  S
C164        C406   1.475       .  S
C165        C434   1.482       .  S
C166        C350   1.484       .  S
C177        C183   1.546       .  S
C177        C181   1.530       .  S
C177       C1970   1.533       .  S
C177        C322   1.535       .  S
C178       C1969   1.538   1_455  S
C178        H185   1.086       .  S
C178        C179   1.366       .  D
C179       C1972   1.548   1_455  S
C179        C798   1.488       .  S
C180        C184   1.542       .  S
C180        C182   1.551       .  S
C180       C1971   1.548       .  S
C180        H186   1.110       .  S
C181        H187   1.086       .  S
C181        C182   1.365       .  D
C182        C826   1.499       .  S
C183        H188   1.084       .  S
C183        C184   1.369       .  D
C184        C281   1.489       .  S
C189        C190   1.542       .  S
C189        C193   1.533       .  S
C189       C1091   1.541       .  S
C189        C869   1.542       .  S
C190        H197   1.080       .  S
C190       C1087   1.362       .  D
C191        C192   1.545       .  S
C191       C1086   1.365       .  D
C191        C266   1.489       .  S
C192        C196   1.550       .  S
C192        C194   1.547       .  S
C192        H198   1.108       .  S
C193        H199   1.087       .  S
C193       C1090   1.365       .  D
C194       C1089   1.370       .  D
C194        C225   1.502       .  S
C195       C1085   1.542       .  S
C195        H200   1.086       .  S
C195        C196   1.373       .  D
C196        C854   1.506       .  S
C201        C202   1.532       .  S
C201        C207   1.547       .  S
C201       C1997   1.538       .  S
C201        C518   1.542       .  S
C202        H209   1.087       .  S
C202        C203   1.364       .  D
C203        C204   1.549       .  S
C203        C574   1.496       .  S
C204        C208   1.538       .  S
C204       C1998   1.550       .  S
C204        H210   1.108       .  S
C205       C1993   1.539   1_455  S
C205        H211   1.086       .  S
C205        C206   1.371       .  D
C206       C1996   1.548   1_455  S
C206        C589   1.499       .  S
C207        H212   1.082       .  S
C207        C208   1.369       .  D
C208        C546   1.490       .  S
C213        C214   1.530       .  S
C213        C217   1.540       .  S
C213       C1115   1.536       .  S
C213        C630   1.539       .  S
C214        H221   1.087       .  S
C214       C1111   1.366       .  D
C215        C216   1.548       .  S
C215       C1110   1.370       .  D
C215        C490   1.499       .  S
C216        C220   1.543       .  S
C216        C218   1.545       .  S
C216        H222   1.110       .  S
C217        H223   1.081       .  S
C217       C1114   1.367       .  D
C218       C1113   1.361       .  D
C218        C462   1.491       .  S
C219       C1109   1.540       .  S
C219        H224   1.086       .  S
C219        C220   1.369       .  D
C220        C658   1.486       .  S
C225        C226   1.411       .  A
C225       C1126   1.408       .  A
C226        C227   1.410       .  A
C226        N231   1.430       .  S
C227        C228   1.407       .  A
C227        H232   1.084       .  S
C228        C233   1.498       .  S
C228       C1125   1.411       .  A
C229        C230   1.407       .  A
C229       C1124   1.409   1_545  A
C229        N234   1.438       .  S
C230       C1121   1.409       .  A
C230        H235   1.084       .  S
N231        H251   1.046       .  S
N231        H252   1.045       .  S
C233        C236   1.410       .  A
C233       C1136   1.410       .  A
N234        H249   1.045       .  S
N234        H250   1.046       .  S
C236        C237   1.417       .  A
C236        H241   1.083       .  S
C237        C238   1.414       .  A
C237        N242   1.438       .  S
C238       C1135   1.407       .  A
C239        C240   1.400       .  A
C239       C1134   1.404   1_545  A
C239        H243   1.084       .  S
C240       C1129   1.409   1_545  A
C240        N244   1.438       .  S
N242        H245   1.045       .  S
N242        H246   1.046       .  S
N244        H247   1.046       .  S
N244        H248   1.046       .  S
C253        C254   1.418       .  A
C253       C1154   1.404       .  A
C254        C255   1.408       .  A
C254        N259   1.438       .  S
C255        C256   1.403       .  A
C255        H260   1.083       .  S
C256        C261   1.500       .  S
C256       C1153   1.417       .  A
C257        C258   1.411       .  A
C257       C1152   1.414   1_545  A
C257        N262   1.437       .  S
C258       C1149   1.403   1_545  A
C258        H263   1.083       .  S
N259        H279   1.046       .  S
N259        H280   1.046       .  S
C261        C264   1.406       .  A
C261       C1164   1.417       .  A
N262        H277   1.046       .  S
N262        H278   1.046       .  S
C264        C265   1.409       .  A
C264        H269   1.083       .  S
C265        C266   1.411       .  A
C265        N270   1.438       .  S
C266       C1163   1.401       .  A
C267        C268   1.410       .  A
C267       C1162   1.402   1_545  A
C267        H271   1.083       .  S
C268       C1157   1.414   1_545  A
C268        N272   1.438       .  S
N270        H273   1.046       .  S
N270        H274   1.045       .  S
N272        H275   1.046       .  S
N272        H276   1.046       .  S
C281        C282   1.412       .  A
C281       C2078   1.405       .  A
C282        C283   1.409       .  A
C282        N287   1.436       .  S
C283        C284   1.402       .  A
C283        H288   1.084       .  S
C284        C289   1.481       .  S
C284       C2077   1.409       .  A
C285        C286   1.411       .  A
C285       C2076   1.412   1_455  A
C285        N290   1.437       .  S
C286       C2073   1.403   1_455  A
C286        H291   1.083       .  S
N287        H307   1.044       .  S
N287        H308   1.045       .  S
C289        C296   1.408       .  A
C289       C2084   1.401       .  A
N290        H305   1.045       .  S
N290        H306   1.046       .  S
C292        C293   1.411       .  A
C292       C2081   1.401       .  A
C292        H297   1.084       .  S
C293       C2086   1.421       .  A
C293        N298   1.438       .  S
C294        C295   1.406       .  A
C294       C2085   1.418       .  A
C295        C296   1.402       .  A
C295        H299   1.084       .  S
C296        N300   1.439       .  S
N298        H301   1.045       .  S
N298        H302   1.046       .  S
N300        H303   1.046       .  S
N300        H304   1.044       .  S
C309        C310   1.411       .  A
C309       C2106   1.403       .  A
C310        C311   1.409       .  A
C310        N315   1.437       .  S
C311        C312   1.404       .  A
C311        H316   1.084       .  S
C312        C317   1.479       .  S
C312       C2105   1.408       .  A
C313        C314   1.405       .  A
C313       C2104   1.410   1_455  A
C313        N318   1.438       .  S
C314       C2101   1.402   1_455  A
C314        H319   1.084       .  S
N315        H335   1.045       .  S
N315        H336   1.046       .  S
C317        C324   1.409       .  A
C317       C2112   1.396       .  A
N318        H333   1.046       .  S
N318        H334   1.044       .  S
C320        C321   1.407       .  A
C320       C2109   1.399   1_455  A
C320        H325   1.084       .  S
C321       C2114   1.419   1_455  A
C321        N326   1.433       .  S
C322        C323   1.412       .  A
C322       C2113   1.421       .  A
C323        C324   1.407       .  A
C323        H327   1.080       .  S
C324        N328   1.439       .  S
N326        H329   1.046       .  S
N326        H330   1.046   1_455  S
N328        H331   1.046       .  S
N328        H332   1.044       .  S
C337        C338   1.415   1_554  A
C337        C342   1.407       .  A
C338        C339   1.406       .  A
C338        N343   1.438       .  S
C339        C340   1.402   1_556  A
C339        H344   1.084       .  S
C340        C345   1.477       .  S
C340        C341   1.407       .  A
C341        C342   1.399       .  A
C341        N346   1.438       .  S
C342        H347   1.084       .  S
N343        H363   1.046       .  S
N343        H364   1.046       .  S
C345        C348   1.402       .  A
C345        C352   1.410   1_554  A
N346        H361   1.046       .  S
N346        H362   1.045       .  S
C348        C349   1.403       .  A
C348        H353   1.084       .  S
C349        C350   1.409       .  A
C349        N354   1.437       .  S
C350        C351   1.403   1_554  A
C351        C352   1.403       .  A
C351        H355   1.084       .  S
C352        N356   1.438       .  S
N354        H357   1.046       .  S
N354        H358   1.045       .  S
N356        H359   1.046       .  S
N356        H360   1.046       .  S
C365        C366   1.413       .  A
C365        C370   1.401   1_554  A
C366        C367   1.398       .  A
C366        N371   1.438       .  S
C367        C368   1.402       .  A
C367        H372   1.084       .  S
C368        C373   1.474       .  S
C368        C369   1.409   1_554  A
C369        C370   1.401       .  A
C369        N374   1.438       .  S
C370        H375   1.084       .  S
N371        H391   1.043       .  S
N371        H392   1.045       .  S
C373        C376   1.398   1_554  A
C373        C380   1.407       .  A
N374        H389   1.046       .  S
N374        H390   1.046       .  S
C376        C377   1.403       .  A
C376        H381   1.084       .  S
C377        C378   1.421       .  A
C377        N382   1.439       .  S
C378        C379   1.406   1_556  A
C379        C380   1.402       .  A
C379        H383   1.082       .  S
C380        N384   1.438       .  S
N382        H385   1.046       .  S
N382        H386   1.046       .  S
N384        H387   1.046       .  S
N384        H388   1.046   1_554  S
C393        C394   1.418       .  A
C393        C398   1.406   1_554  A
C394        C395   1.402       .  A
C394        N399   1.439       .  S
C395        C396   1.398       .  A
C395        H400   1.084       .  S
C396        C401   1.475       .  S
C396        C397   1.408   1_554  A
C397        C398   1.406       .  A
C397        N402   1.438       .  S
C398        H403   1.084       .  S
N399        H419   1.046       .  S
N399        H420   1.046       .  S
C401        C404   1.401   1_554  A
C401        C408   1.410       .  A
N402        H417   1.045       .  S
N402        H418   1.046       .  S
C404        C405   1.401       .  A
C404        H409   1.084       .  S
C405        C406   1.407   1_556  A
C405        N410   1.438       .  S
C406        C407   1.400       .  A
C407        C408   1.403       .  A
C407        H411   1.084       .  S
C408        N412   1.437       .  S
N410        H413   1.046       .  S
N410        H414   1.046       .  S
N412        H415   1.046       .  S
N412        H416   1.045       .  S
C421        C422   1.417       .  A
C421        C426   1.408       .  A
C422        C423   1.401       .  A
C422        N427   1.433       .  S
C423        C424   1.398       .  A
C423        H428   1.084       .  S
C424        C429   1.472       .  S
C424        C425   1.406       .  A
C425        C426   1.402       .  A
C425        N430   1.438       .  S
C426        H431   1.083   1_554  S
N427        H447   1.045       .  S
N427        H448   1.046       .  S
C429        C432   1.400       .  A
C429        C436   1.409   1_554  A
N430        H445   1.046   1_554  S
N430        H446   1.046   1_554  S
C432        C433   1.401       .  A
C432        H437   1.084       .  S
C433        C434   1.410       .  A
C433        N438   1.438       .  S
C434        C435   1.402   1_554  A
C435        C436   1.403       .  A
C435        H439   1.084       .  S
C436        N440   1.438       .  S
N438        H441   1.046       .  S
N438        H442   1.045       .  S
N440        H443   1.046       .  S
N440        H444   1.046       .  S
C449       C1031   1.480       .  S
C449        C454   1.403       .  A
C449       C1346   1.416       .  A
C450        C451   1.403       .  A
C450       C1345   1.413       .  A
C450        N455   1.439       .  S
C451       C1348   1.401       .  A
C451        H456   1.084       .  S
C452        C457   1.483       .  S
C452        C453   1.411       .  A
C452       C1347   1.400       .  A
C453        C454   1.408       .  A
C453        N458   1.437       .  S
C454        H459   1.084       .  S
N455        H475   1.045       .  S
N455        H476   1.046       .  S
C457        C464   1.409       .  A
C457       C1356   1.401       .  A
N458        H473   1.046       .  S
N458        H474   1.045       .  S
C460        C461   1.406       .  A
C460       C1353   1.401   1_545  A
C460        H465   1.084       .  S
C461       C1358   1.417       .  A
C461        N466   1.438       .  S
C462        C463   1.402       .  A
C462       C1357   1.416       .  A
C463        C464   1.407       .  A
C463        H467   1.077       .  S
C464        N468   1.437       .  S
N466        H469   1.046       .  S
N466        H470   1.046       .  S
N468        H471   1.046       .  S
N468        H472   1.046       .  S
C477       C1032   1.500       .  S
C477        C478   1.421       .  A
C477       C1378   1.408       .  A
C478        C479   1.405       .  A
C478        N483   1.439       .  S
C479       C1376   1.402       .  A
C479        H484   1.084       .  S
C480        C485   1.500       .  S
C480        C481   1.415       .  A
C480       C1375   1.400   1_565  A
C481        C482   1.417       .  A
C481        N486   1.437       .  S
C482       C1373   1.409       .  A
C482        H487   1.083       .  S
N483        H503   1.046       .  S
N483        H504   1.046       .  S
C485        C492   1.414   1_565  A
C485       C1384   1.408       .  A
N486        H501   1.046       .  S
N486        H502   1.046       .  S
C488        C489   1.412       .  A
C488       C1381   1.407       .  A
C488        H493   1.083       .  S
C489        C490   1.412       .  A
C489        N494   1.431       .  S
C490       C1387   1.405       .  A
C491        C492   1.405       .  A
C491       C1386   1.406       .  A
C491        H495   1.084       .  S
C492        N496   1.439       .  S
N494        H497   1.045       .  S
N494        H498   1.045       .  S
N496        H499   1.046       .  S
N496        H500   1.046       .  S
C505        C510   1.407       .  A
C505       C2298   1.409       .  A
C506        C507   1.403       .  A
C506       C2297   1.414   1_455  A
C506        N511   1.433       .  S
C507       C2300   1.403   1_455  A
C507        H512   1.084       .  S
C508        C513   1.491       .  S
C508        C509   1.414       .  A
C508       C2299   1.402       .  A
C509        C510   1.416       .  A
C509        N514   1.437       .  S
C510        H515   1.084       .  S
N511        H531   1.046       .  S
N511        H532   1.046       .  S
C513        C516   1.401       .  A
C513       C2312   1.409       .  A
N514        H529   1.046       .  S
N514        H530   1.046       .  S
C516        C517   1.408       .  A
C516        H521   1.084       .  S
C517        C518   1.420       .  A
C517        N522   1.433       .  S
C518       C2311   1.412       .  A
C519        C520   1.409       .  A
C519       C2310   1.414       .  A
C519        H523   1.075       .  S
C520       C2305   1.411       .  A
C520        N524   1.439       .  S
N522        H525   1.045       .  S
N522        H526   1.045       .  S
N524        H527   1.045       .  S
N524        H528   1.046       .  S
C533        C534   1.412       .  A
C533       C2330   1.402       .  A
C534        C535   1.408       .  A
C534        N539   1.438       .  S
C535        C536   1.403       .  A
C535        H540   1.084       .  S
C536        C541   1.483       .  S
C536       C2329   1.411       .  A
C537        C538   1.402       .  A
C537       C2328   1.408   1_455  A
C537        N542   1.439       .  S
C538       C2325   1.407       .  A
C538        H543   1.084       .  S
N539        H559   1.045       .  S
N539        H560   1.046       .  S
C541        C548   1.408       .  A
C541       C2336   1.403       .  A
N542        H557   1.046       .  S
N542        H558   1.044       .  S
C544        C545   1.407       .  A
C544       C2333   1.401   1_455  A
C544        H549   1.084       .  S
C545       C2338   1.413   1_455  A
C545        N550   1.437       .  S
C546        C547   1.405       .  A
C546       C2337   1.415       .  A
C547        C548   1.403       .  A
C547        H551   1.084       .  S
C548        N552   1.438       .  S
N550        H553   1.046       .  S
N550        H554   1.045       .  S
N552        H555   1.046       .  S
N552        H556   1.046       .  S
C561        C562   1.423       .  A
C561        C566   1.407       .  A
C562        C563   1.407       .  A
C562        N567   1.439       .  S
C563        C564   1.398       .  A
C563        H568   1.084       .  S
C564        C569   1.489       .  S
C564        C565   1.412       .  A
C565        C566   1.412       .  A
C565        N570   1.437       .  S
C566        H571   1.083       .  S
N567        H587   1.046       .  S
N567        H588   1.046       .  S
C569        C572   1.404       .  A
C569        C576   1.410       .  A
N570        H585   1.046       .  S
N570        H586   1.045       .  S
C572        C573   1.410       .  A
C572        H577   1.084       .  S
C573        C574   1.412       .  A
C573        N578   1.432       .  S
C574        C575   1.407       .  A
C575        C576   1.409       .  A
C575        H579   1.084       .  S
C576        N580   1.438       .  S
N578        H581   1.045       .  S
N578        H582   1.045       .  S
N580        H583   1.045       .  S
N580        H584   1.045       .  S
C589        C590   1.411       .  A
C589        C594   1.407       .  A
C590        C591   1.408       .  A
C590        N595   1.432       .  S
C591        C592   1.408       .  A
C591        H596   1.084       .  S
C592        C597   1.501       .  S
C592        C593   1.414       .  A
C593        C594   1.409       .  A
C593        N598   1.438       .  S
C594        H599   1.083       .  S
N595        H615   1.046       .  S
N595        H616   1.045       .  S
C597        C600   1.409       .  A
C597        C604   1.412       .  A
N598        H613   1.046       .  S
N598        H614   1.046       .  S
C600        C601   1.414       .  A
C600        H605   1.083       .  S
C601        C602   1.416       .  A
C601        N606   1.437       .  S
C602        C603   1.407       .  A
C603        C604   1.407       .  A
C603        H607   1.084       .  S
C604        N608   1.438       .  S
N606        H609   1.046       .  S
N606        H610   1.045       .  S
N608        H611   1.046       .  S
N608        H612   1.046       .  S
C617        C618   1.418       .  A
C617        C622   1.413       .  A
C618        C619   1.412       .  A
C618        N623   1.437       .  S
C619        C620   1.405       .  A
C619        H624   1.084       .  S
C620        C625   1.492       .  S
C620        C621   1.408       .  A
C621        C622   1.406       .  A
C621        N626   1.439       .  S
C622        H627   1.083       .  S
N623        H643   1.046       .  S
N623        H644   1.046       .  S
C625        C628   1.402       .  A
C625        C632   1.410       .  A
N626        H641   1.045       .  S
N626        H642   1.046       .  S
C628        C629   1.404       .  A
C628        H633   1.084       .  S
C629        C630   1.418       .  A
C629        N634   1.433       .  S
C630        C631   1.413       .  A
C631        C632   1.408       .  A
C631        H635   1.076       .  S
C632        N636   1.438       .  S
N634        H637   1.046       .  S
N634        H638   1.045       .  S
N636        H639   1.046       .  S
N636        H640   1.045       .  S
C645        C646   1.413       .  A
C645        C650   1.405       .  A
C646        C647   1.405       .  A
C646        N651   1.439       .  S
C647        C648   1.402       .  A
C647        H652   1.084       .  S
C648        C653   1.485       .  S
C648        C649   1.411       .  A
C649        C650   1.411       .  A
C649        N654   1.437       .  S
C650        H655   1.084       .  S
N651        H671   1.046       .  S
N651        H672   1.046       .  S
C653        C656   1.403       .  A
C653        C660   1.410       .  A
N654        H669   1.046       .  S
N654        H670   1.045       .  S
C656        C657   1.405       .  A
C656        H661   1.084       .  S
C657        C658   1.408       .  A
C657        N662   1.432       .  S
C658        C659   1.402       .  A
C659        C660   1.408       .  A
C659        H663   1.078       .  S
C660        N664   1.438       .  S
N662        H665   1.045       .  S
N662        H666   1.045       .  S
N664        H667   1.046       .  S
N664        H668   1.046       .  S
C673        C674   1.416       .  A
C673        C678   1.407       .  A
C674        C675   1.402       .  A
C674        N679   1.433       .  S
C675        C676   1.398       .  A
C675        H680   1.084       .  S
C676        C681   1.474       .  S
C676        C677   1.407       .  A
C677        C678   1.404       .  A
C677        N682   1.438       .  S
C678        H683   1.082       .  S
N679        H699   1.046       .  S
N679        H700   1.046       .  S
C681        C684   1.401       .  A
C681        C688   1.407       .  A
N682        H697   1.046       .  S
N682        H698   1.046       .  S
C684        C685   1.400       .  A
C684        H689   1.084       .  S
C685        C686   1.416       .  A
C685        N690   1.438       .  S
C686        C687   1.402       .  A
C687        C688   1.404       .  A
C687        H691   1.084       .  S
C688        N692   1.438       .  S
N690        H693   1.045       .  S
N690        H694   1.043       .  S
N692        H695   1.046       .  S
N692        H696   1.045       .  S
C701        C702   1.418       .  A
C701        C706   1.407       .  A
C702        C703   1.405       .  A
C702        N707   1.438       .  S
C703        C704   1.399       .  A
C703        H708   1.084       .  S
C704        C709   1.469       .  S
C704        C705   1.404       .  A
C705        C706   1.400       .  A
C705        N710   1.439       .  S
C706        H711   1.083       .  S
N707        H727   1.046       .  S
N707        H728   1.046       .  S
C709        C712   1.401       .  A
C709        C716   1.406       .  A
N710        H725   1.046       .  S
N710        H726   1.045       .  S
C712        C713   1.399       .  A
C712        H717   1.084       .  S
C713        C714   1.415       .  A
C713        N718   1.439       .  S
C714        C715   1.400       .  A
C715        C716   1.400       .  A
C715        H719   1.084       .  S
C716        N720   1.438       .  S
N718        H721   1.045       .  S
N718        H722   1.043       .  S
N720        H723   1.046       .  S
N720        H724   1.045       .  S
C729        C730   1.402       .  A
C729        C734   1.400       .  A
C730        C731   1.394       .  A
C730        N735   1.432       .  S
C731        C732   1.400       .  A
C731        H736   1.084       .  S
C732        C737   1.465       .  S
C732        C733   1.417       .  A
C733        C734   1.397       .  A
C733        N738   1.439       .  S
C734        H739   1.084       .  S
N735        H755   1.045       .  S
N735        H756   1.046       .  S
C737        C740   1.399       .  A
C737        C744   1.403       .  A
N738        H753   1.046       .  S
N738        H754   1.043       .  S
C740        C741   1.401       .  A
C740        H745   1.084       .  S
C741        C742   1.416       .  A
C741        N746   1.439       .  S
C742        C743   1.404       .  A
C743        C744   1.393       .  A
C743        H747   1.084       .  S
C744        N748   1.432       .  S
N746        H749   1.046       .  S
N746        H750   1.046       .  S
N748        H751   1.046       .  S
N748        H752   1.045       .  S
C757        C758   1.421       .  A
C757        C762   1.411       .  A
C758        C759   1.404       .  A
C758        N763   1.438       .  S
C759        C760   1.397       .  A
C759        H764   1.084       .  S
C760        C765   1.470       .  S
C760        C761   1.404       .  A
C761        C762   1.402       .  A
C761        N766   1.438       .  S
C762        H767   1.083       .  S
N763        H783   1.046       .  S
N763        H784   1.046       .  S
C765        C768   1.401       .  A
C765        C772   1.407       .  A
N766        H781   1.046       .  S
N766        H782   1.046       .  S
C768        C769   1.397       .  A
C768        H773   1.084       .  S
C769        C770   1.414       .  A
C769        N774   1.439       .  S
C770        C771   1.401       .  A
C771        C772   1.400       .  A
C771        H775   1.084       .  S
C772        N776   1.437       .  S
N774        H777   1.045       .  S
N774        H778   1.043       .  S
N776        H779   1.046       .  S
N776        H780   1.046       .  S
C785        C786   1.419       .  A
C785        C790   1.411       .  A
C786        C787   1.417       .  A
C786        N791   1.437       .  S
C787        C788   1.408       .  A
C787        H792   1.084       .  S
C788        C793   1.499       .  S
C788        C789   1.408       .  A
C789        C790   1.407       .  A
C789        N794   1.438       .  S
C790        H795   1.083       .  S
N791        H811   1.045       .  S
N791        H812   1.046       .  S
C793        C796   1.408       .  A
C793        C800   1.413       .  A
N794        H809   1.046       .  S
N794        H810   1.046       .  S
C796        C797   1.409       .  A
C796        H801   1.084       .  S
C797        C798   1.407       .  A
C797        N802   1.432       .  S
C798        C799   1.403       .  A
C799        C800   1.413       .  A
C799        H803   1.083       .  S
C800        N804   1.437       .  S
N802        H805   1.046       .  S
N802        H806   1.045       .  S
N804        H807   1.046       .  S
N804        H808   1.046       .  S
C813        C814   1.418       .  A
C813        C818   1.407       .  A
C814        C815   1.406       .  A
C814        N819   1.438       .  S
C815        C816   1.401       .  A
C815        H820   1.084       .  S
C816        C821   1.499       .  S
C816        C817   1.416       .  A
C817        C818   1.416       .  A
C817        N822   1.437       .  S
C818        H823   1.083       .  S
N819        H839   1.046       .  S
N819        H840   1.046       .  S
C821        C824   1.402       .  A
C821        C828   1.416       .  A
N822        H837   1.046       .  S
N822        H838   1.046       .  S
C824        C825   1.408       .  A
C824        H829   1.084       .  S
C825        C826   1.419       .  A
C825        N830   1.438       .  S
C826        C827   1.403       .  A
C827        C828   1.413       .  A
C827        H831   1.083       .  S
C828        N832   1.437       .  S
N830        H833   1.046       .  S
N830        H834   1.044       .  S
N832        H835   1.046       .  S
N832        H836   1.045       .  S
C841        C842   1.422       .  A
C841        C846   1.407       .  A
C842        C843   1.408       .  A
C842        N847   1.439       .  S
C843        C844   1.401       .  A
C843        H848   1.084       .  S
C844        C849   1.497       .  S
C844        C845   1.413       .  A
C845        C846   1.415       .  A
C845        N850   1.437       .  S
C846        H851   1.083       .  S
N847        H867   1.046       .  S
N847        H868   1.046       .  S
C849        C852   1.403       .  A
C849        C856   1.413       .  A
N850        H865   1.046       .  S
N850        H866   1.045       .  S
C852        C853   1.409       .  A
C852        H857   1.084       .  S
C853        C854   1.414       .  A
C853        N858   1.431       .  S
C854        C855   1.410       .  A
C855        C856   1.411       .  A
C855        H859   1.083       .  S
C856        N860   1.438       .  S
N858        H861   1.045       .  S
N858        H862   1.045       .  S
N860        H863   1.046       .  S
N860        H864   1.045       .  S
C869        C870   1.419       .  A
C869        C874   1.414       .  A
C870        C871   1.405       .  A
C870        N875   1.433       .  S
C871        C872   1.399       .  A
C871        H876   1.084       .  S
C872        C877   1.482       .  S
C872        C873   1.405       .  A
C873        C874   1.407       .  A
C873        N878   1.438       .  S
C874        H879   1.074       .  S
N875        H895   1.045       .  S
N875        H896   1.046       .  S
C877        C880   1.399       .  A
C877        C884   1.412       .  A
N878        H893   1.046       .  S
N878        H894   1.045       .  S
C880        C881   1.403       .  A
C880        H885   1.084       .  S
C881        C882   1.414       .  A
C881        N886   1.439       .  S
C882        C883   1.403       .  A
C883        C884   1.410       .  A
C883        H887   1.084       .  S
C884        N888   1.437       .  S
N886        H889   1.046       .  S
N886        H890   1.046       .  S
N888        H891   1.046       .  S
N888        H892   1.046       .  S
O897        C908   1.297       .  A
O897       Eu933   2.496       .  S
O898        C909   1.300       .  A
O898       Eu932   2.513       .  S
O899        C910   1.288       .  A
O899       Eu905   2.445       .  S
O900        C911   1.292       .  A
O900       Eu905   2.459       .  S
O901        C911   1.288       .  A
O901       Eu935   2.449       .  S
O902        C910   1.293       .  A
O902       Eu934   2.469       .  S
O903        C909   1.285       .  A
O903       Eu905   2.418       .  S
O904        C908   1.289       .  A
O904       Eu905   2.445       .  S
Eu905       O915   2.346       .  S
Eu905       O907   2.341       .  S
Eu905       O906   2.343       .  S
Eu905       O913   2.354       .  S
O906       Eu935   2.348       .  S
O906       Eu932   2.366       .  S
O907       Eu933   2.362       .  S
O907       Eu934   2.347       .  S
C908       C1778   1.488       .  S
C909       C1513   1.502       .  S
C910       C1569   1.490       .  S
C911       C1597   1.487       .  S
H912        O913   0.965       .  S
O913       Eu934   2.347       .  S
O913       Eu932   2.360       .  S
H914        O915   0.966       .  S
O915       Eu933   2.367       .  S
O915       Eu935   2.355       .  S
O916        C939   1.297       .  A
O916       Eu932   2.494       .  S
O917        C940   1.296       .  A
O917       Eu933   2.489       .  S
O918        C941   1.291       .  A
O918       Eu934   2.456       .  S
O919        C942   1.290       .  A
O919       Eu935   2.444       .  S
O920        C943   1.290       .  A
O920       Eu935   2.446       .  S
O921        C944   1.291       .  A
O921       Eu934   2.453       .  S
O922        C945   1.288       .  A
O922       Eu936   2.438       .  S
O923        C946   1.288       .  A
O923       Eu936   2.447       .  S
O924        C945   1.289       .  A
O924       Eu934   2.450       .  S
O925        C946   1.288       .  A
O925       Eu935   2.445       .  S
O926        C941   1.300       .  A
O926       Eu932   2.507       .  S
O927        C944   1.297       .  A
O927       Eu933   2.494       .  S
O928        C943   1.298       .  A
O928       Eu933   2.500       .  S
O929        C942   1.297       .  A
O929       Eu932   2.495       .  S
O930        C939   1.292       .  A
O930       Eu936   2.460       .  S
O931        C940   1.293       .  A
O931       Eu936   2.467       .  S
Eu932       O950   2.376       .  S
Eu932       O938   2.364       .  S
Eu933       O937   2.363       .  S
Eu933       O948   2.375       .  S
Eu934       O948   2.362       .  S
Eu934       O938   2.348       .  S
Eu935       O937   2.346       .  S
Eu935       O950   2.355       .  S
Eu936       O937   2.347       .  S
Eu936       O948   2.358       .  S
Eu936       O950   2.356       .  S
Eu936       O938   2.349       .  S
C939       C1541   1.497       .  S
C940       C1737   1.494       .  S
C941       C1457   1.504       .  S
C942       C1498   1.494       .  S
C943       C1681   1.504       .  S
C944       C1709   1.489       .  S
C945       C1653   1.485       .  S
C946       C1638   1.468       .  S
H947        O948   0.966       .  S
H949        O950   0.966       .  S
N951        H983   1.035       .  S
N951        C955   1.352       .  A
N952       C2751   1.348       .  A
N952        C960   1.349       .  A
N953        H984   1.040       .  S
N953        C957   1.352       .  A
N954       C2753   1.348       .  A
N954        C962   1.346       .  A
C955        C963   1.387       .  A
C955        C971   1.414       .  A
C956        C972   1.409       .  A
C956        C964   1.386   1_565  A
C957        C965   1.386       .  A
C957        C974   1.409       .  A
C958        C973   1.407       .  A
C958        C966   1.387       .  A
C959       N2744   1.351   1_455  A
C959        C971   1.413       .  A
C959        C967   1.386       .  A
C960        C974   1.409       .  A
C960        C968   1.386       .  A
C961       N2746   1.350   1_455  A
C961        C969   1.386       .  A
C961        C972   1.408       .  A
C962        C970   1.387       .  A
C962        C973   1.405       .  A
C963        H975   1.082       .  S
C964        H976   1.082   1_545  S
C965        H977   1.082       .  S
C966        H978   1.082       .  S
C967       C2760   1.370   1_455  A
C967        H979   1.082       .  S
C968       C2759   1.374       .  A
C968        H980   1.082       .  S
C969       C2762   1.371   1_455  A
C969        H981   1.082       .  S
C970       C2761   1.372       .  A
C970        H982   1.082       .  S
C971       C1610   1.486       .  S
C972       C1625   1.482       .  S
C973       C1666   1.470       .  S
C974       C1582   1.482       .  S
O985        C996   1.292       .  A
O985      Eu1021   2.461       .  S
O986        C997   1.293       .  A
O986      Eu1020   2.474       .  S
O987        C998   1.287       .  A
O987      Eu2785   2.431       .  S
O988        C999   1.286       .  A
O988       Eu993   2.436       .  S
O989        C999   1.293       .  A
O989      Eu1023   2.464       .  S
O990        C998   1.289       .  A
O990      Eu1022   2.448       .  S
O991        C997   1.294       .  A
O991       Eu993   2.467       .  S
O992        C996   1.292       .  A
O992       Eu993   2.464   1_556  S
Eu993      O2779   2.444       .  S
Eu993      O1003   2.356   1_554  S
Eu993      O2787   2.345   1_554  S
Eu993       O994   2.344       .  S
Eu993      O2793   2.352       .  S
O994      Eu1023   2.348       .  S
O994      Eu1020   2.358       .  S
O995      Eu2785   2.348   1_556  S
O995      Eu2813   2.364       .  S
O995      Eu1022   2.340   1_556  S
C996       C1429   1.479       .  S
C997       C1190   1.495       .  S
C998       C1233   1.469       .  S
C999       C1274   1.493       .  S
H1000      O1001   0.967       .  S
O1001     Eu2785   2.346       .  S
O1001     Eu1022   2.350       .  S
O1001     Eu2812   2.362   1_455  S
H1002      O1003   0.966       .  S
O1003     Eu1021   2.368       .  S
O1003     Eu1023   2.352   1_556  S
O1004      C1027   1.292       .  A
O1005      C1028   1.296       .  A
O1006      C1029   1.289       .  A
O1006     Eu1022   2.438       .  S
O1007      C1030   1.288       .  A
O1007     Eu1023   2.434       .  S
O1008     Eu1023   2.441   1_556  S
O1009     Eu1022   2.438   1_556  S
O1010      C1033   1.285       .  A
O1010     Eu2816   2.428   1_454  S
O1011      C1034   1.288       .  A
O1011     Eu1024   2.442       .  S
O1012      C1033   1.290       .  A
O1013      C1034   1.293       .  A
O1014      C1029   1.294       .  A
O1014     Eu2812   2.477   1_455  S
O1015      C1032   1.299       .  A
O1015     Eu1917   2.505       .  S
O1016      C1031   1.295       .  A
O1017      C1030   1.298       .  A
O1017     Eu1020   2.500       .  S
O1018      C1027   1.290       .  A
O1018     Eu1024   2.452   1_554  S
O1019      C1028   1.289       .  A
O1019     Eu1024   2.449       .  S
Eu1020     O2806   2.509       .  S
Eu1020     O2793   2.368       .  S
Eu1020     O1922   2.358   1_565  S
Eu1021     O1911   2.494       .  S
Eu1021     O2787   2.361       .  S
Eu1021     O1932   2.356   1_565  S
Eu1024     O2802   2.440       .  S
Eu1024     O1025   2.348       .  S
Eu1024     O2828   2.348       .  S
Eu1024     O1038   2.346   1_556  S
Eu1024     O2818   2.351   1_556  S
O1026     Eu1916   2.360   1_455  S
O1026     Eu2816   2.348   1_454  S
C1027      C1205   1.473       .  S
C1028      C1401   1.479       .  S
C1029      C1134   1.480       .  S
C1030      C1149   1.486       .  S
C1033      C1317   1.480       .  S
C1034      C1289   1.493       .  S
H1035      O1036   0.965       .  S
O1036     Eu1917   2.356       .  S
O1036     Eu2816   2.349   1_455  S
H1037      O1038   0.966       .  S
N1039      H1071   1.039       .  S
N1039      C1044   1.352       .  A
N1039      C1043   1.352       .  A
N1040      C1047   1.348       .  A
N1040      C1048   1.349       .  A
N1041      H1072   1.039       .  S
N1041      C1046   1.350   1_556  A
N1041      C1045   1.350   1_556  A
N1042      C1049   1.349       .  A
N1042      C1050   1.348       .  A
C1043      C1051   1.387   1_556  A
C1043      C1059   1.413       .  A
C1044      C1060   1.412       .  A
C1044      C1052   1.386   1_556  A
C1045      C1053   1.386       .  A
C1045      C1062   1.408   1_554  A
C1046      C1061   1.411   1_554  A
C1046      C1054   1.388       .  A
C1047      C1059   1.410       .  A
C1047      C1055   1.387       .  A
C1048      C1062   1.407       .  A
C1048      C1056   1.386       .  A
C1049      C1057   1.385       .  A
C1049      C1060   1.407       .  A
C1050      C1058   1.387       .  A
C1050      C1061   1.410       .  A
C1051      C1052   1.377       .  A
C1051      H1063   1.082       .  S
C1052      H1064   1.082       .  S
C1053      C1054   1.375       .  A
C1053      H1065   1.082       .  S
C1054      H1066   1.082       .  S
C1055      C1056   1.371       .  A
C1055      H1067   1.082       .  S
C1056      H1068   1.082       .  S
C1057      C1058   1.371       .  A
C1057      H1069   1.082       .  S
C1058      H1070   1.082       .  S
C1059      C1261   1.481       .  S
C1060      C1302   1.482       .  S
C1061      C1330   1.479   1_556  S
C1062      C1246   1.475       .  S
C1073      C2866   1.535       .  S
C1073      C1079   1.549       .  S
C1073      C1077   1.535       .  S
C1073      C1218   1.544       .  S
C1074      C2865   1.532       .  S
C1074      H1081   1.086       .  S
C1074      C1075   1.367       .  D
C1075      C2868   1.548   1_455  S
C1075      C1694   1.492       .  S
C1076      C2867   1.546       .  S
C1076      C1080   1.539       .  S
C1076      C1078   1.548       .  S
C1076      H1082   1.110       .  S
C1077      H1083   1.086       .  S
C1077      C1078   1.367       .  D
C1078      C1722   1.495       .  S
C1079      H1084   1.080       .  S
C1079      C1080   1.367       .  D
C1080      C1177   1.491       .  S
C1085      C1086   1.546       .  S
C1085      C1089   1.538       .  S
C1085      C1765   1.552       .  S
C1086      H1093   1.081       .  S
C1087      C1088   1.543   1_545  S
C1087      C1162   1.484   1_545  S
C1088      C1092   1.542       .  S
C1088      C1090   1.544   1_565  S
C1088      H1094   1.109       .  S
C1089      H1095   1.086       .  S
C1090      C1121   1.488       .  S
C1091      H1096   1.086       .  S
C1091      C1092   1.372   1_545  D
C1092      C1750   1.494       .  S
C1097      C1098   1.541       .  S
C1097      C1103   1.547       .  S
C1097      C2893   1.532       .  S
C1097      C1414   1.545       .  S
C1098      H1105   1.086       .  S
C1098      C1099   1.366       .  D
C1099      C1100   1.546       .  S
C1099      C1470   1.488       .  S
C1100      C1104   1.539       .  S
C1100      C2894   1.543       .  S
C1100      H1106   1.111       .  S
C1101      C2889   1.536   1_455  S
C1101      H1107   1.086       .  S
C1101      C1102   1.369       .  D
C1102      C2892   1.548   1_455  S
C1102      C1485   1.499       .  S
C1103      H1108   1.083       .  S
C1103      C1104   1.368       .  D
C1104      C1442   1.483       .  S
C1109      C1110   1.537       .  S
C1109      C1113   1.539       .  S
C1109      C1526   1.544       .  S
C1110      H1117   1.086       .  S
C1111      C1112   1.551   1_545  S
C1111      C1386   1.498       .  S
C1112      C1116   1.549       .  S
C1112      C1114   1.550   1_565  S
C1112      H1118   1.110       .  S
C1113      H1119   1.078       .  S
C1114      C1358   1.495       .  S
C1115      H1120   1.086       .  S
C1115      C1116   1.366   1_545  D
C1116      C1554   1.492       .  S
C1121      C1122   1.407   1_545  A
C1122      C1123   1.402       .  A
C1122      N1127   1.431       .  S
C1123      C1124   1.404       .  A
C1123      H1128   1.084       .  S
C1124      C1129   1.484       .  S
C1125      C1126   1.410       .  A
C1125      N1130   1.438       .  S
C1126      H1131   1.083       .  S
N1127      H1147   1.046   1_565  S
N1127      H1148   1.045       .  S
C1129      C1132   1.405       .  A
N1130      H1145   1.045       .  S
N1130      H1146   1.046       .  S
C1132      C1133   1.410       .  A
C1132      H1137   1.084       .  S
C1133      C1134   1.412       .  A
C1133      N1138   1.437       .  S
C1135      C1136   1.404       .  A
C1135      H1139   1.084       .  S
C1136      N1140   1.438       .  S
N1138      H1141   1.046       .  S
N1138      H1142   1.046       .  S
N1140      H1143   1.045       .  S
N1140      H1144   1.046       .  S
C1149      C1150   1.417       .  A
C1150      C1151   1.406       .  A
C1150      N1155   1.439       .  S
C1151      C1152   1.401       .  A
C1151      H1156   1.084       .  S
C1152      C1157   1.491       .  S
C1153      C1154   1.411       .  A
C1153      N1158   1.438       .  S
C1154      H1159   1.084       .  S
N1155      H1175   1.046       .  S
N1155      H1176   1.046       .  S
C1157      C1160   1.403       .  A
N1158      H1173   1.046       .  S
N1158      H1174   1.046       .  S
C1160      C1161   1.407       .  A
C1160      H1165   1.084       .  S
C1161      C1162   1.412       .  A
C1161      N1166   1.438       .  S
C1163      C1164   1.411       .  A
C1163      H1167   1.082       .  S
C1164      N1168   1.438       .  S
N1166      H1169   1.045       .  S
N1166      H1170   1.045   1_565  S
N1168      H1171   1.046       .  S
N1168      H1172   1.045       .  S
C1177      C1178   1.412       .  A
C1177      C2974   1.405       .  A
C1178      C1179   1.410       .  A
C1178      N1183   1.436       .  S
C1179      C1180   1.403       .  A
C1179      H1184   1.084       .  S
C1180      C1185   1.485       .  S
C1180      C2973   1.410       .  A
C1181      C2972   1.411       .  A
C1181      C1182   1.408       .  A
C1181      N1186   1.439       .  S
C1182      C2969   1.404       .  A
C1182      H1187   1.084       .  S
N1183      H1203   1.043       .  S
N1183      H1204   1.046       .  S
C1185      C2980   1.401       .  A
C1185      C1192   1.408       .  A
N1186      H1201   1.045       .  S
N1186      H1202   1.044       .  S
C1188      C2977   1.402       .  A
C1188      C1189   1.414       .  A
C1188      H1193   1.084       .  S
C1189      C2982   1.421       .  A
C1189      N1194   1.437       .  S
C1190      C2981   1.418       .  A
C1190      C1191   1.407       .  A
C1191      C1192   1.405       .  A
C1191      H1195   1.082       .  S
C1192      N1196   1.439       .  S
N1194      H1197   1.046       .  S
N1194      H1198   1.045   1_455  S
N1196      H1199   1.046       .  S
N1196      H1200   1.045       .  S
C1205      C1206   1.410       .  A
C1205      C3002   1.402       .  A
C1206      C1207   1.405       .  A
C1206      N1211   1.438       .  S
C1207      C1208   1.404       .  A
C1207      H1212   1.084       .  S
C1208      C1213   1.487       .  S
C1208      C3001   1.412       .  A
C1209      C3000   1.414   1_455  A
C1209      C1210   1.411       .  A
C1209      N1214   1.437       .  S
C1210      C2997   1.405   1_455  A
C1210      H1215   1.084       .  S
N1211      H1231   1.046       .  S
N1211      H1232   1.046       .  S
C1213      C3008   1.400       .  A
C1213      C1220   1.407       .  A
N1214      H1229   1.046       .  S
N1214      H1230   1.045       .  S
C1216      C3005   1.401   1_655  A
C1216      C1217   1.409       .  A
C1216      H1221   1.084       .  S
C1217      C3010   1.422   1_655  A
C1217      N1222   1.433       .  S
C1218      C3009   1.420       .  A
C1218      C1219   1.413       .  A
C1219      C1220   1.406       .  A
C1219      H1223   1.074       .  S
C1220      N1224   1.439       .  S
N1222      H1225   1.046   1_655  S
N1222      H1226   1.046       .  S
N1224      H1227   1.045       .  S
N1224      H1228   1.046       .  S
C1233      C1234   1.412   1_554  A
C1233      C1238   1.404       .  A
C1234      C1235   1.403       .  A
C1234      N1239   1.439       .  S
C1235      C1236   1.401       .  A
C1235      H1240   1.084       .  S
C1236      C1241   1.469       .  S
C1236      C1237   1.406   1_556  A
C1237      C1238   1.398       .  A
C1237      N1242   1.438       .  S
C1238      H1243   1.084       .  S
N1239      H1259   1.046       .  S
N1239      H1260   1.046       .  S
C1241      C1244   1.401   1_556  A
C1241      C1248   1.408       .  A
N1242      H1257   1.046       .  S
N1242      H1258   1.046       .  S
C1244      C1245   1.401       .  A
C1244      H1249   1.084       .  S
C1245      C1246   1.408   1_554  A
C1245      N1250   1.438       .  S
C1246      C1247   1.400       .  A
C1247      C1248   1.401       .  A
C1247      H1251   1.084       .  S
C1248      N1252   1.438       .  S
N1250      H1253   1.046       .  S
N1250      H1254   1.045       .  S
N1252      H1255   1.046       .  S
N1252      H1256   1.046       .  S
C1261      C1262   1.416   1_556  A
C1261      C1266   1.401       .  A
C1262      C1263   1.398       .  A
C1262      N1267   1.438       .  S
C1263      C1264   1.401   1_554  A
C1263      H1268   1.084       .  S
C1264      C1269   1.479   1_556  S
C1264      C1265   1.411       .  A
C1265      C1266   1.404       .  A
C1265      N1270   1.438       .  S
C1266      H1271   1.084       .  S
N1267      H1287   1.043       .  S
N1267      H1288   1.045       .  S
C1269      C1272   1.397   1_554  A
C1269      C1276   1.408       .  A
N1270      H1285   1.046       .  S
N1270      H1286   1.045       .  S
C1272      C1273   1.402   1_556  A
C1272      H1277   1.084       .  S
C1273      C1274   1.423       .  A
C1273      N1278   1.438       .  S
C1274      C1275   1.409       .  A
C1275      C1276   1.405       .  A
C1275      H1279   1.083       .  S
C1276      N1280   1.438       .  S
N1278      H1281   1.046   1_554  S
N1278      H1282   1.045       .  S
N1280      H1283   1.046       .  S
N1280      H1284   1.045   1_554  S
C1289      C1290   1.418       .  A
C1289      C1294   1.410       .  A
C1290      C1291   1.400       .  A
C1290      N1295   1.433       .  S
C1291      C1292   1.398       .  A
C1291      H1296   1.084       .  S
C1292      C1297   1.477       .  S
C1292      C1293   1.408       .  A
C1293      C1294   1.407       .  A
C1293      N1298   1.438       .  S
C1294      H1299   1.083       .  S
N1295      H1315   1.045   1_556  S
N1295      H1316   1.046       .  S
C1297      C1300   1.402       .  A
C1297      C1304   1.411   1_556  A
N1298      H1313   1.046       .  S
N1298      H1314   1.044       .  S
C1300      C1301   1.404       .  A
C1300      H1305   1.084       .  S
C1301      C1302   1.407       .  A
C1301      N1306   1.437       .  S
C1302      C1303   1.402   1_556  A
C1303      C1304   1.405       .  A
C1303      H1307   1.084       .  S
C1304      N1308   1.438       .  S
N1306      H1309   1.046       .  S
N1306      H1310   1.046       .  S
N1308      H1311   1.046       .  S
N1308      H1312   1.044       .  S
C1317      C1318   1.416       .  A
C1317      C1322   1.407   1_554  A
C1318      C1319   1.397       .  A
C1318      N1323   1.433       .  S
C1319      C1320   1.398       .  A
C1319      H1324   1.084       .  S
C1320      C1325   1.469       .  S
C1320      C1321   1.407   1_554  A
C1321      C1322   1.399       .  A
C1321      N1326   1.438       .  S
C1322      H1327   1.082       .  S
N1323      H1343   1.046       .  S
N1323      H1344   1.046       .  S
C1325      C1328   1.401       .  A
C1325      C1332   1.409   1_554  A
N1326      H1341   1.046       .  S
N1326      H1342   1.046       .  S
C1328      C1329   1.400       .  A
C1328      H1333   1.084       .  S
C1329      C1330   1.410       .  A
C1329      N1334   1.438       .  S
C1330      C1331   1.400   1_554  A
C1331      C1332   1.399       .  A
C1331      H1335   1.084       .  S
C1332      N1336   1.438       .  S
N1334      H1337   1.046       .  S
N1334      H1338   1.046       .  S
N1336      H1339   1.046       .  S
N1336      H1340   1.045       .  S
C1345      C1350   1.403   1_565  A
C1346      C1347   1.403       .  A
C1346      N1351   1.439       .  S
C1347      H1352   1.084       .  S
C1348      C1353   1.487       .  S
C1348      C1349   1.414   1_565  A
C1349      C1350   1.409       .  A
C1349      N1354   1.438       .  S
C1350      H1355   1.084       .  S
N1351      H1371   1.046       .  S
N1351      H1372   1.046       .  S
C1353      C1360   1.411       .  A
N1354      H1369   1.046       .  S
N1354      H1370   1.045       .  S
C1356      C1357   1.404       .  A
C1356      H1361   1.084       .  S
C1357      N1362   1.439       .  S
C1358      C1359   1.403   1_545  A
C1359      C1360   1.409       .  A
C1359      H1363   1.079       .  S
C1360      N1364   1.438       .  S
N1362      H1365   1.046       .  S
N1362      H1366   1.045       .  S
N1364      H1367   1.046       .  S
N1364      H1368   1.045       .  S
C1373      C1374   1.422   1_565  A
C1374      C1375   1.403       .  A
C1374      N1379   1.439       .  S
C1375      H1380   1.084       .  S
C1376      C1381   1.499       .  S
C1376      C1377   1.414       .  A
C1377      C1378   1.415       .  A
C1377      N1382   1.437       .  S
C1378      H1383   1.083       .  S
N1379      H1399   1.046       .  S
N1379      H1400   1.046       .  S
C1381      C1388   1.414       .  A
N1382      H1397   1.046       .  S
N1382      H1398   1.045       .  S
C1384      C1385   1.414       .  A
C1384      H1389   1.083       .  S
C1385      C1386   1.410   1_565  A
C1385      N1390   1.431       .  S
C1387      C1388   1.406       .  A
C1387      H1391   1.083       .  S
C1388      N1392   1.438       .  S
N1390      H1393   1.045       .  S
N1390      H1394   1.045       .  S
N1392      H1395   1.046       .  S
N1392      H1396   1.046       .  S
C1401      C3194   1.411       .  A
C1401      C1406   1.403       .  A
C1402      C3193   1.416       .  A
C1402      C1403   1.406       .  A
C1402      N1407   1.439       .  S
C1403      C3196   1.404       .  A
C1403      H1408   1.084       .  S
C1404      C1409   1.486       .  S
C1404      C3195   1.404       .  A
C1404      C1405   1.410       .  A
C1405      C1406   1.408       .  A
C1405      N1410   1.438       .  S
C1406      H1411   1.084       .  S
N1407      H1427   1.044       .  S
N1407      H1428   1.046       .  S
C1409      C1412   1.398       .  A
C1409      C3208   1.406       .  A
N1410      H1425   1.046       .  S
N1410      H1426   1.045       .  S
C1412      C1413   1.410       .  A
C1412      H1417   1.084       .  S
C1413      C1414   1.424       .  A
C1413      N1418   1.438       .  S
C1414      C3207   1.414       .  A
C1415      C3206   1.411       .  A
C1415      C1416   1.406       .  A
C1415      H1419   1.075       .  S
C1416      C3201   1.411   1_655  A
C1416      N1420   1.439       .  S
N1418      H1421   1.046       .  S
N1418      H1422   1.045       .  S
N1420      H1423   1.045       .  S
N1420      H1424   1.045       .  S
C1429      C1430   1.412       .  A
C1429      C3226   1.404       .  A
C1430      C1431   1.406       .  A
C1430      N1435   1.438       .  S
C1431      C1432   1.402       .  A
C1431      H1436   1.084       .  S
C1432      C1437   1.485       .  S
C1432      C3225   1.411       .  A
C1433      C3224   1.409       .  A
C1433      C1434   1.406       .  A
C1433      N1438   1.438       .  S
C1434      C3221   1.406       .  A
C1434      H1439   1.084       .  S
N1435      H1455   1.045       .  S
N1435      H1456   1.046       .  S
C1437      C3232   1.404       .  A
C1437      C1444   1.411       .  A
N1438      H1453   1.046       .  S
N1438      H1454   1.046       .  S
C1440      C3229   1.403   1_455  A
C1440      C1441   1.411       .  A
C1440      H1445   1.084       .  S
C1441      C3234   1.413   1_455  A
C1441      N1446   1.437       .  S
C1442      C3233   1.411       .  A
C1442      C1443   1.402       .  A
C1443      C1444   1.404       .  A
C1443      H1447   1.084       .  S
C1444      N1448   1.438       .  S
N1446      H1449   1.046       .  S
N1446      H1450   1.045       .  S
N1448      H1451   1.046       .  S
N1448      H1452   1.045       .  S
C1457      C1458   1.421       .  A
C1457      C1462   1.408       .  A
C1458      C1459   1.410       .  A
C1458      N1463   1.439       .  S
C1459      C1460   1.402       .  A
C1459      H1464   1.084       .  S
C1460      C1465   1.501       .  S
C1460      C1461   1.414       .  A
C1461      C1462   1.416       .  A
C1461      N1466   1.437       .  S
C1462      H1467   1.083       .  S
N1463      H1483   1.046       .  S
N1463      H1484   1.046       .  S
C1465      C1468   1.407       .  A
C1465      C1472   1.416       .  A
N1466      H1481   1.046       .  S
N1466      H1482   1.046       .  S
C1468      C1469   1.411       .  A
C1468      H1473   1.084       .  S
C1469      C1470   1.408       .  A
C1469      N1474   1.432       .  S
C1470      C1471   1.401       .  A
C1471      C1472   1.411       .  A
C1471      H1475   1.084       .  S
C1472      N1476   1.437       .  S
N1474      H1477   1.045       .  S
N1474      H1478   1.046       .  S
N1476      H1479   1.046       .  S
N1476      H1480   1.045       .  S
C1485      C1486   1.410       .  A
C1485      C1490   1.408       .  A
C1486      C1487   1.409       .  A
C1486      N1491   1.432       .  S
C1487      C1488   1.409       .  A
C1487      H1492   1.084       .  S
C1488      C1493   1.500       .  S
C1488      C1489   1.413       .  A
C1489      C1490   1.407       .  A
C1489      N1494   1.438       .  S
C1490      H1495   1.083       .  S
N1491      H1511   1.046       .  S
N1491      H1512   1.046       .  S
C1493      C1496   1.409       .  A
C1493      C1500   1.413       .  A
N1494      H1509   1.046       .  S
N1494      H1510   1.045       .  S
C1496      C1497   1.414       .  A
C1496      H1501   1.083       .  S
C1497      C1498   1.414       .  A
C1497      N1502   1.437       .  S
C1498      C1499   1.408       .  A
C1499      C1500   1.405       .  A
C1499      H1503   1.084       .  S
C1500      N1504   1.439       .  S
N1502      H1505   1.046       .  S
N1502      H1506   1.045       .  S
N1504      H1507   1.046       .  S
N1504      H1508   1.046       .  S
C1513      C1514   1.416       .  A
C1513      C1518   1.415       .  A
C1514      C1515   1.414       .  A
C1514      N1519   1.437       .  S
C1515      C1516   1.407       .  A
C1515      H1520   1.083       .  S
C1516      C1521   1.489       .  S
C1516      C1517   1.404       .  A
C1517      C1518   1.400       .  A
C1517      N1522   1.439       .  S
C1518      H1523   1.082       .  S
N1519      H1539   1.045       .  S
N1519      H1540   1.046       .  S
C1521      C1524   1.403       .  A
C1521      C1528   1.405       .  A
N1522      H1537   1.046       .  S
N1522      H1538   1.046       .  S
C1524      C1525   1.405       .  A
C1524      H1529   1.084       .  S
C1525      C1526   1.416       .  A
C1525      N1530   1.433       .  S
C1526      C1527   1.417       .  A
C1527      C1528   1.405       .  A
C1527      H1531   1.072       .  S
C1528      N1532   1.439       .  S
N1530      H1533   1.046       .  S
N1530      H1534   1.045       .  S
N1532      H1535   1.046       .  S
N1532      H1536   1.046       .  S
C1541      C1542   1.416       .  A
C1541      C1546   1.409       .  A
C1542      C1543   1.404       .  A
C1542      N1547   1.433       .  S
C1543      C1544   1.399       .  A
C1543      H1548   1.084       .  S
C1544      C1549   1.489       .  S
C1544      C1545   1.411       .  A
C1545      C1546   1.415       .  A
C1545      N1550   1.437       .  S
C1546      H1551   1.083       .  S
N1547      H1567   1.045       .  S
N1547      H1568   1.046       .  S
C1549      C1552   1.402       .  A
C1549      C1556   1.411       .  A
N1550      H1565   1.046       .  S
N1550      H1566   1.045       .  S
C1552      C1553   1.409       .  A
C1552      H1557   1.084       .  S
C1553      C1554   1.413       .  A
C1553      N1558   1.438       .  S
C1554      C1555   1.403       .  A
C1555      C1556   1.412       .  A
C1555      H1559   1.080       .  S
C1556      N1560   1.437       .  S
N1558      H1561   1.045       .  S
N1558      H1562   1.045       .  S
N1560      H1563   1.046       .  S
N1560      H1564   1.045       .  S
C1569      C1570   1.418       .  A
C1569      C1574   1.407       .  A
C1570      C1571   1.403       .  A
C1570      N1575   1.433       .  S
C1571      C1572   1.399       .  A
C1571      H1576   1.084       .  S
C1572      C1577   1.478       .  S
C1572      C1573   1.408       .  A
C1573      C1574   1.405       .  A
C1573      N1578   1.438       .  S
C1574      H1579   1.083       .  S
N1575      H1595   1.046       .  S
N1575      H1596   1.046       .  S
C1577      C1580   1.402       .  A
C1577      C1584   1.408       .  A
N1578      H1593   1.045       .  S
N1578      H1594   1.046       .  S
C1580      C1581   1.400       .  A
C1580      H1585   1.084       .  S
C1581      C1582   1.415       .  A
C1581      N1586   1.438       .  S
C1582      C1583   1.402       .  A
C1583      C1584   1.404       .  A
C1583      H1587   1.084       .  S
C1584      N1588   1.437       .  S
N1586      H1589   1.045       .  S
N1586      H1590   1.044       .  S
N1588      H1591   1.046       .  S
N1588      H1592   1.045       .  S
C1597      C1598   1.418       .  A
C1597      C1602   1.407       .  A
C1598      C1599   1.407       .  A
C1598      N1603   1.438       .  S
C1599      C1600   1.400       .  A
C1599      H1604   1.084       .  S
C1600      C1605   1.474       .  S
C1600      C1601   1.405       .  A
C1601      C1602   1.402       .  A
C1601      N1606   1.438       .  S
C1602      H1607   1.084       .  S
N1603      H1623   1.045       .  S
N1603      H1624   1.046       .  S
C1605      C1608   1.401       .  A
C1605      C1612   1.406       .  A
N1606      H1621   1.046       .  S
N1606      H1622   1.045       .  S
C1608      C1609   1.400       .  A
C1608      H1613   1.084       .  S
C1609      C1610   1.418       .  A
C1609      N1614   1.439       .  S
C1610      C1611   1.404       .  A
C1611      C1612   1.403       .  A
C1611      H1615   1.084       .  S
C1612      N1616   1.437       .  S
N1614      H1617   1.045       .  S
N1614      H1618   1.043       .  S
N1616      H1619   1.046       .  S
N1616      H1620   1.045       .  S
C1625      C1626   1.405       .  A
C1625      C1630   1.401       .  A
C1626      C1627   1.401       .  A
C1626      N1631   1.432       .  S
C1627      C1628   1.404       .  A
C1627      H1632   1.084       .  S
C1628      C1633   1.476       .  S
C1628      C1629   1.417       .  A
C1629      C1630   1.400       .  A
C1629      N1634   1.439       .  S
C1630      H1635   1.084       .  S
N1631      H1651   1.046       .  S
N1631      H1652   1.046       .  S
C1633      C1636   1.402       .  A
C1633      C1640   1.408       .  A
N1634      H1649   1.046       .  S
N1634      H1650   1.042       .  S
C1636      C1637   1.404       .  A
C1636      H1641   1.084       .  S
C1637      C1638   1.411       .  A
C1637      N1642   1.439       .  S
C1638      C1639   1.402       .  A
C1639      C1640   1.403       .  A
C1639      H1643   1.084       .  S
C1640      N1644   1.438       .  S
N1642      H1645   1.046       .  S
N1642      H1646   1.045       .  S
N1644      H1647   1.046       .  S
N1644      H1648   1.046       .  S
C1653      C1654   1.419       .  A
C1653      C1658   1.409       .  A
C1654      C1655   1.403       .  A
C1654      N1659   1.438       .  S
C1655      C1656   1.397       .  A
C1655      H1660   1.084       .  S
C1656      C1661   1.466       .  S
C1656      C1657   1.403       .  A
C1657      C1658   1.399       .  A
C1657      N1662   1.439       .  S
C1658      H1663   1.083       .  S
N1659      H1679   1.046       .  S
N1659      H1680   1.046       .  S
C1661      C1664   1.400       .  A
C1661      C1668   1.406       .  A
N1662      H1677   1.046       .  S
N1662      H1678   1.046       .  S
C1664      C1665   1.395       .  A
C1664      H1669   1.084       .  S
C1665      C1666   1.415       .  A
C1665      N1670   1.439       .  S
C1666      C1667   1.401       .  A
C1667      C1668   1.399       .  A
C1667      H1671   1.084       .  S
C1668      N1672   1.437       .  S
N1670      H1673   1.045       .  S
N1670      H1674   1.043       .  S
N1672      H1675   1.046       .  S
N1672      H1676   1.046       .  S
C1681      C1682   1.419       .  A
C1681      C1686   1.411       .  A
C1682      C1683   1.416       .  A
C1682      N1687   1.437       .  S
C1683      C1684   1.406       .  A
C1683      H1688   1.083       .  S
C1684      C1689   1.494       .  S
C1684      C1685   1.408       .  A
C1685      C1686   1.404       .  A
C1685      N1690   1.439       .  S
C1686      H1691   1.083       .  S
N1687      H1707   1.045       .  S
N1687      H1708   1.046       .  S
C1689      C1692   1.403       .  A
C1689      C1696   1.414       .  A
N1690      H1705   1.045       .  S
N1690      H1706   1.046       .  S
C1692      C1693   1.401       .  A
C1692      H1697   1.084       .  S
C1693      C1694   1.410       .  A
C1693      N1698   1.432       .  S
C1694      C1695   1.406       .  A
C1695      C1696   1.414       .  A
C1695      H1699   1.084       .  S
C1696      N1700   1.437       .  S
N1698      H1701   1.046       .  S
N1698      H1702   1.046       .  S
N1700      H1703   1.046       .  S
N1700      H1704   1.045       .  S
C1709      C1710   1.415       .  A
C1709      C1714   1.405       .  A
C1710      C1711   1.406       .  A
C1710      N1715   1.439       .  S
C1711      C1712   1.402       .  A
C1711      H1716   1.084       .  S
C1712      C1717   1.494       .  S
C1712      C1713   1.413       .  A
C1713      C1714   1.414       .  A
C1713      N1718   1.437       .  S
C1714      H1719   1.083       .  S
N1715      H1735   1.046       .  S
N1715      H1736   1.046       .  S
C1717      C1720   1.402       .  A
C1717      C1724   1.413       .  A
N1718      H1733   1.045       .  S
N1718      H1734   1.046       .  S
C1720      C1721   1.408       .  A
C1720      H1725   1.084       .  S
C1721      C1722   1.417       .  A
C1721      N1726   1.439       .  S
C1722      C1723   1.403       .  A
C1723      C1724   1.411       .  A
C1723      H1727   1.084       .  S
C1724      N1728   1.437       .  S
N1726      H1729   1.045       .  S
N1726      H1730   1.044       .  S
N1728      H1731   1.046       .  S
N1728      H1732   1.046       .  S
C1737      C1738   1.416       .  A
C1737      C1742   1.409       .  A
C1738      C1739   1.407       .  A
C1738      N1743   1.438       .  S
C1739      C1740   1.400       .  A
C1739      H1744   1.084       .  S
C1740      C1745   1.487       .  S
C1740      C1741   1.409       .  A
C1741      C1742   1.414       .  A
C1741      N1746   1.437       .  S
C1742      H1747   1.083       .  S
N1743      H1763   1.046       .  S
N1743      H1764   1.046       .  S
C1745      C1748   1.403       .  A
C1745      C1752   1.409       .  A
N1746      H1761   1.046       .  S
N1746      H1762   1.046       .  S
C1748      C1749   1.408       .  A
C1748      H1753   1.084       .  S
C1749      C1750   1.412       .  A
C1749      N1754   1.431       .  S
C1750      C1751   1.407       .  A
C1751      C1752   1.407       .  A
C1751      H1755   1.084       .  S
C1752      N1756   1.437       .  S
N1754      H1757   1.045       .  S
N1754      H1758   1.046       .  S
N1756      H1759   1.046       .  S
N1756      H1760   1.045       .  S
C1765      C1766   1.420       .  A
C1765      C1770   1.417       .  A
C1766      C1767   1.408       .  A
C1766      N1771   1.433       .  S
C1767      C1768   1.400       .  A
C1767      H1772   1.084       .  S
C1768      C1773   1.493       .  S
C1768      C1769   1.408       .  A
C1769      C1770   1.413       .  A
C1769      N1774   1.438       .  S
C1770      H1775   1.075       .  S
N1771      H1791   1.046       .  S
N1771      H1792   1.045       .  S
C1773      C1776   1.403       .  A
C1773      C1780   1.412       .  A
N1774      H1789   1.046       .  S
N1774      H1790   1.046       .  S
C1776      C1777   1.410       .  A
C1776      H1781   1.084       .  S
C1777      C1778   1.416       .  A
C1777      N1782   1.439       .  S
C1778      C1779   1.404       .  A
C1779      C1780   1.412       .  A
C1779      H1783   1.084       .  S
C1780      N1784   1.437       .  S
N1782      H1785   1.046       .  S
N1782      H1786   1.046       .  S
N1784      H1787   1.046       .  S
N1784      H1788   1.045       .  S
O1793      C1804   1.294       .  A
O1793     Eu1829   2.481       .  S
O1794      C1805   1.301       .  A
O1794     Eu1828   2.516       .  S
O1795      C1806   1.287       .  A
O1795     Eu1801   2.441       .  S
O1796      C1807   1.290       .  A
O1796     Eu1801   2.448       .  S
O1797      C1807   1.287       .  A
O1797     Eu1831   2.437       .  S
O1798      C1806   1.290       .  A
O1798     Eu1830   2.449       .  S
O1799      C1805   1.287       .  A
O1799     Eu1801   2.429       .  S
O1800      C1804   1.286       .  A
O1800     Eu1801   2.426       .  S
Eu1801     O1811   2.350       .  S
Eu1801     O1803   2.341       .  S
Eu1801     O1802   2.340       .  S
Eu1801     O1809   2.349       .  S
O1802     Eu1831   2.356       .  S
O1802     Eu1828   2.363       .  S
O1803     Eu1829   2.358       .  S
O1803     Eu1830   2.337       .  S
C1804      C2674   1.472       .  S
C1805      C2409   1.505       .  S
C1806      C2465   1.483       .  S
C1807      C2493   1.477       .  S
H1808      O1809   0.966       .  S
O1809     Eu1830   2.360       .  S
O1809     Eu1828   2.360       .  S
H1810      O1811   0.966       .  S
O1811     Eu1829   2.364       .  S
O1811     Eu1831   2.356       .  S
O1812      C1835   1.297       .  A
O1812     Eu1828   2.492       .  S
O1813      C1836   1.296       .  A
O1813     Eu1829   2.486       .  S
O1814      C1837   1.289       .  A
O1814     Eu1830   2.439       .  S
O1815      C1838   1.291       .  A
O1815     Eu1831   2.450       .  S
O1816      C1839   1.292       .  A
O1816     Eu1831   2.458       .  S
O1817      C1840   1.293       .  A
O1817     Eu1830   2.466       .  S
O1818      C1841   1.288       .  A
O1818     Eu1832   2.439       .  S
O1819      C1842   1.286       .  A
O1819     Eu1832   2.436       .  S
O1820      C1841   1.290       .  A
O1820     Eu1830   2.458       .  S
O1821      C1842   1.291       .  A
O1821     Eu1831   2.454       .  S
O1822      C1837   1.300       .  A
O1822     Eu1828   2.504       .  S
O1823      C1840   1.295       .  A
O1823     Eu1829   2.481       .  S
O1824      C1839   1.296       .  A
O1824     Eu1829   2.487       .  S
O1825      C1838   1.298       .  A
O1825     Eu1828   2.498       .  S
O1826      C1835   1.289       .  A
O1826     Eu1832   2.441       .  S
O1827      C1836   1.290       .  A
O1827     Eu1832   2.450       .  S
Eu1828     O1846   2.369       .  S
Eu1828     O1834   2.370       .  S
Eu1829     O1833   2.363       .  S
Eu1829     O1844   2.360       .  S
Eu1830     O1844   2.347       .  S
Eu1830     O1834   2.350       .  S
Eu1831     O1833   2.347       .  S
Eu1831     O1846   2.347       .  S
Eu1832     O1833   2.347       .  S
Eu1832     O1844   2.345       .  S
Eu1832     O1846   2.349       .  S
Eu1832     O1834   2.344       .  S
C1835      C2437   1.491       .  S
C1836      C2633   1.493       .  S
C1837      C2353   1.493       .  S
C1838      C2394   1.492       .  S
C1839      C2577   1.505       .  S
C1840      C2605   1.490       .  S
C1841      C2549   1.488       .  S
C1842      C2534   1.490       .  S
H1843      O1844   0.966       .  S
H1845      O1846   0.966       .  S
N1847      H1879   1.041       .  S
N1847      C2748   1.352   1_545  A
N1847      C1851   1.348       .  A
N1848      C1856   1.348       .  A
N1849      H1880   1.040       .  S
N1849      C2750   1.349   1_545  A
N1849      C1853   1.351       .  A
N1850      C1858   1.349   1_455  A
C1851      C1859   1.388       .  A
C1851      C1867   1.411       .  A
C1852      N2743   1.351       .  A
C1852      C1868   1.409       .  A
C1852      C1860   1.386       .  A
C1853      C1861   1.387       .  A
C1853      C1870   1.409       .  A
C1854      N2745   1.353       .  A
C1854      C1869   1.413       .  A
C1854      C1862   1.386       .  A
C1855      C1867   1.408       .  A
C1855      C1863   1.387       .  A
C1856      C1870   1.405       .  A
C1856      C1864   1.386       .  A
C1857      C1865   1.386       .  A
C1857      C1868   1.408       .  A
C1858      C1866   1.386       .  A
C1858      C1869   1.408       .  A
C1859      C2756   1.377       .  A
C1859      H1871   1.082       .  S
C1860      C2755   1.375       .  A
C1860      H1872   1.082       .  S
C1861      C2758   1.376   1_545  A
C1861      H1873   1.082       .  S
C1862      C2757   1.373       .  A
C1862      H1874   1.082       .  S
C1863      H1875   1.082       .  S
C1864      H1876   1.083       .  S
C1865      H1877   1.082       .  S
C1866      H1878   1.083       .  S
C1867      C2506   1.475       .  S
C1868      C2521   1.479       .  S
C1869      C2562   1.482       .  S
C1870      C2478   1.478       .  S
O1881      C1892   1.294       .  A
O1881     Eu1917   2.475       .  S
O1882      C1893   1.293   1_655  A
O1882     Eu1916   2.472       .  S
O1883      C1894   1.288       .  A
O1884      C1895   1.285       .  A
O1884     Eu1889   2.433   1_655  S
O1885      C1895   1.290       .  A
O1885     Eu1919   2.451       .  S
O1886      C1894   1.292       .  A
O1886     Eu1918   2.470       .  S
O1887      C1893   1.292       .  A
O1887     Eu1889   2.455   1_554  S
O1888      C1892   1.290       .  A
O1888     Eu1889   2.442       .  S
Eu1889     O1899   2.345   1_455  S
Eu1889     O1890   2.346   1_456  S
O1890     Eu1919   2.349   1_554  S
O1890     Eu1916   2.356       .  S
O1891     Eu1918   2.346       .  S
C1892      C2325   1.485       .  S
C1893      C2086   1.497   1_455  S
C1894      C2129   1.482       .  S
C1895      C2170   1.486       .  S
H1896      O1897   0.966       .  S
O1897     Eu1918   2.344   1_554  S
H1898      O1899   0.966       .  S
O1899     Eu1917   2.362   1_655  S
O1899     Eu1919   2.345       .  S
O1900      C1923   1.293       .  A
O1900     Eu2812   2.478   1_545  S
O1901      C1924   1.299       .  A
O1901     Eu2813   2.507   1_645  S
O1902      C1925   1.288       .  A
O1902     Eu1918   2.435   1_554  S
O1903      C1926   1.289       .  A
O1903     Eu1919   2.446   1_554  S
O1904      C2823   1.288       .  A
O1904     Eu1919   2.437       .  S
O1905      C2824   1.284       .  A
O1905     Eu1918   2.421       .  S
O1906      C1929   1.287       .  A
O1907      C1930   1.288       .  A
O1907     Eu1920   2.438       .  S
O1908      C1929   1.291       .  A
O1908     Eu2814   2.453   1_545  S
O1909      C1930   1.290       .  A
O1909     Eu2815   2.451   1_545  S
O1910      C1925   1.296       .  A
O1911      C1928   1.297       .  A
O1912      C1927   1.297       .  A
O1912     Eu2813   2.492   1_655  S
O1913      C1926   1.300       .  A
O1913     Eu1916   2.507       .  S
O1914      C1923   1.290       .  A
O1914     Eu1920   2.453       .  S
O1915      C1924   1.290       .  A
O1915     Eu1920   2.447   1_556  S
Eu1916     O2796   2.462       .  S
Eu1916     O2830   2.371       .  S
Eu1917     O2797   2.482       .  S
Eu1917     O2808   2.492   1_455  S
Eu1917     O2817   2.369   1_455  S
Eu1918     O2804   2.451       .  S
Eu1918     O2828   2.353       .  S
Eu1918     O2818   2.354   1_556  S
Eu1919     O2805   2.450       .  S
Eu1919     O2817   2.354       .  S
Eu1919     O2830   2.349   1_556  S
Eu1920     O1921   2.351   1_554  S
Eu1920     O1934   2.350       .  S
O1921     Eu2813   2.359   1_645  S
O1921     Eu2815   2.355   1_546  S
O1922     Eu2814   2.346   1_545  S
C1923      C2101   1.474       .  S
C1924      C2297   1.493       .  S
C1925      C2030   1.486       .  S
C1926      C2045   1.497       .  S
C1927      O2800   1.290       .  A
C1927      C3137   1.489       .  S
C1928      O2801   1.289       .  A
C1928      C3165   1.491       .  S
C1929      C2213   1.479       .  S
C1930      C2185   1.476       .  S
H1931      O1932   0.965       .  S
O1932     Eu2814   2.355   1_546  S
H1933      O1934   0.967       .  S
O1934     Eu2812   2.364   1_545  S
O1934     Eu2815   2.356   1_545  S
N1935      H1967   1.040       .  S
N1935      C1940   1.352       .  A
N1935      C1939   1.351       .  A
N1936      C1943   1.349       .  A
N1936      C1944   1.350       .  A
N1937      H1968   1.041       .  S
N1937      C1942   1.351       .  A
N1937      C1941   1.351       .  A
N1938      C1945   1.348       .  A
N1938      C1946   1.347       .  A
C1939      C1947   1.387   1_556  A
C1939      C1955   1.412       .  A
C1940      C1956   1.413       .  A
C1940      C1948   1.387   1_556  A
C1941      C1949   1.387   1_556  A
C1941      C1958   1.410       .  A
C1942      C1957   1.410       .  A
C1942      C1950   1.387   1_556  A
C1943      C1955   1.411       .  A
C1943      C1951   1.387       .  A
C1944      C1958   1.409       .  A
C1944      C1952   1.385       .  A
C1945      C1953   1.386       .  A
C1945      C1956   1.406       .  A
C1946      C1954   1.387       .  A
C1946      C1957   1.407       .  A
C1947      C1948   1.378       .  A
C1947      H1959   1.082       .  S
C1948      H1960   1.082       .  S
C1949      C1950   1.376       .  A
C1949      H1961   1.082       .  S
C1950      H1962   1.082       .  S
C1951      C1952   1.374       .  A
C1951      H1963   1.082       .  S
C1952      H1964   1.082       .  S
C1953      C1954   1.373       .  A
C1953      H1965   1.082       .  S
C1954      H1966   1.083       .  S
C1955      C2157   1.480       .  S
C1956      C2198   1.480       .  S
C1957      C2226   1.477       .  S
C1958      C2142   1.482       .  S
C1969      C1975   1.547       .  S
C1969      C1973   1.532       .  S
C1969      C2114   1.540       .  S
C1970      H1977   1.086       .  S
C1970      C1971   1.362       .  D
C1971      C2590   1.486       .  S
C1972      C1976   1.539       .  S
C1972      C1974   1.545       .  S
C1972      H1978   1.111       .  S
C1973      H1979   1.087       .  S
C1973      C1974   1.366       .  D
C1974      C2618   1.489       .  S
C1975      H1980   1.081   1_655  S
C1975      C1976   1.365       .  D
C1976      C2073   1.488       .  S
C1981      C1982   1.542       .  S
C1981      C2883   1.537       .  S
C1981      C1985   1.537       .  S
C1981      C2661   1.542       .  S
C1982      H1989   1.080       .  S
C1982      C2879   1.360       .  D
C1983      C1984   1.547       .  S
C1983      C2878   1.365       .  D
C1983      C2058   1.490       .  S
C1984      C1988   1.549       .  S
C1984      C1986   1.549       .  S
C1984      H1990   1.105       .  S
C1985      H1991   1.086       .  S
C1985      C2882   1.368       .  D
C1986      C2881   1.367       .  D
C1986      C2017   1.498       .  S
C1987      C2877   1.538       .  S
C1987      H1992   1.086       .  S
C1987      C1988   1.372       .  D
C1988      C2646   1.506       .  S
C1993      C1994   1.538       .  S
C1993      C1999   1.546       .  S
C1993      C2310   1.548       .  S
C1994      H2001   1.086       .  S
C1994      C1995   1.367       .  D
C1995      C1996   1.539       .  S
C1995      C2366   1.487       .  S
C1996      C2000   1.536       .  S
C1996      H2002   1.108       .  S
C1997      H2003   1.086       .  S
C1997      C1998   1.369       .  D
C1998      C2381   1.499       .  S
C1999      H2004   1.081       .  S
C1999      C2000   1.366       .  D
C2000      C2338   1.487       .  S
C2005      C2006   1.534       .  S
C2005      C2907   1.532       .  S
C2005      C2009   1.547       .  S
C2005      C2422   1.544       .  S
C2006      H2013   1.086       .  S
C2006      C2903   1.370       .  D
C2007      C2008   1.547       .  S
C2007      C2902   1.368       .  D
C2007      C2282   1.497       .  S
C2008      C2012   1.542       .  S
C2008      C2010   1.540       .  S
C2008      H2014   1.109       .  S
C2009      H2015   1.079       .  S
C2009      C2906   1.369       .  D
C2010      C2905   1.366       .  D
C2010      C2254   1.489       .  S
C2011      C2901   1.541       .  S
C2011      H2016   1.086       .  S
C2011      C2012   1.369       .  D
C2012      C2450   1.487       .  S
C2017      C2018   1.411       .  A
C2017      C2918   1.410       .  A
C2018      C2019   1.408       .  A
C2018      N2023   1.431       .  S
C2019      C2020   1.405       .  A
C2019      H2024   1.084       .  S
C2020      C2025   1.486       .  S
C2020      C2917   1.406       .  A
C2021      C2916   1.412   1_545  A
C2021      C2022   1.408       .  A
C2021      N2026   1.438       .  S
C2022      C2913   1.408       .  A
C2022      H2027   1.084       .  S
N2023      H2043   1.045       .  S
N2023      H2044   1.046       .  S
C2025      C2028   1.405       .  A
C2025      C2928   1.408       .  A
N2026      H2041   1.046       .  S
N2026      H2042   1.046       .  S
C2028      C2029   1.411       .  A
C2028      H2033   1.084       .  S
C2029      C2030   1.413       .  A
C2029      N2034   1.436       .  S
C2030      C2927   1.407       .  A
C2031      C2926   1.408   1_545  A
C2031      C2032   1.406       .  A
C2031      H2035   1.084       .  S
C2032      C2921   1.411   1_545  A
C2032      N2036   1.438       .  S
N2034      H2037   1.046       .  S
N2034      H2038   1.045       .  S
N2036      H2039   1.046       .  S
N2036      H2040   1.046       .  S
C2045      C2046   1.419       .  A
C2045      C2946   1.404       .  A
C2046      C2047   1.410       .  A
C2046      N2051   1.438       .  S
C2047      C2048   1.405       .  A
C2047      H2052   1.083       .  S
C2048      C2053   1.505       .  S
C2048      C2945   1.417       .  A
C2049      C2944   1.411   1_545  A
C2049      C2050   1.405   1_545  A
C2049      N2054   1.438       .  S
C2050      C2941   1.403       .  A
C2050      H2055   1.084   1_565  S
N2051      H2071   1.045       .  S
N2051      H2072   1.046       .  S
C2053      C2056   1.406       .  A
C2053      C2956   1.418       .  A
N2054      H2069   1.046       .  S
N2054      H2070   1.046       .  S
C2056      C2057   1.410       .  A
C2056      H2061   1.083       .  S
C2057      C2058   1.411       .  A
C2057      N2062   1.438       .  S
C2058      C2955   1.402       .  A
C2059      C2954   1.401   1_545  A
C2059      C2060   1.407   1_545  A
C2059      H2063   1.083       .  S
C2060      C2949   1.411       .  A
C2060      N2064   1.438   1_565  S
N2062      H2065   1.045       .  S
N2062      H2066   1.045       .  S
N2064      H2067   1.045       .  S
N2064      H2068   1.046       .  S
C2073      C2074   1.412       .  A
C2074      C2075   1.401       .  A
C2074      N2079   1.433       .  S
C2075      C2076   1.401       .  A
C2075      H2080   1.084       .  S
C2076      C2081   1.486       .  S
C2077      C2078   1.406       .  A
C2077      N2082   1.439       .  S
C2078      H2083   1.084       .  S
N2079      H2099   1.046       .  S
N2079      H2100   1.046       .  S
C2081      C2088   1.408   1_655  A
N2082      H2097   1.045       .  S
N2082      H2098   1.044       .  S
C2084      C2085   1.410       .  A
C2084      H2089   1.084       .  S
C2085      N2090   1.437       .  S
C2086      C2087   1.409   1_655  A
C2087      C2088   1.405       .  A
C2087      H2091   1.083       .  S
C2088      N2092   1.439       .  S
N2090      H2093   1.046       .  S
N2090      H2094   1.045       .  S
N2092      H2095   1.045       .  S
N2092      H2096   1.046       .  S
C2101      C2102   1.407       .  A
C2102      C2103   1.407       .  A
C2102      N2107   1.432       .  S
C2103      C2104   1.405       .  A
C2103      H2108   1.084       .  S
C2104      C2109   1.482       .  S
C2105      C2106   1.404       .  A
C2105      N2110   1.439       .  S
C2106      H2111   1.083       .  S
N2107      H2127   1.046       .  S
N2107      H2128   1.046       .  S
C2109      C2116   1.407       .  A
N2110      H2125   1.045       .  S
N2110      H2126   1.044       .  S
C2112      C2113   1.401       .  A
C2112      H2117   1.084       .  S
C2113      N2118   1.432       .  S
C2114      C2115   1.413       .  A
C2115      C2116   1.404       .  A
C2115      H2119   1.076       .  S
C2116      N2120   1.439       .  S
N2118      H2121   1.046       .  S
N2118      H2122   1.045       .  S
N2120      H2123   1.045       .  S
N2120      H2124   1.045   1_655  S
C2129      C2130   1.413       .  A
C2129      C2134   1.405   1_556  A
C2130      C2131   1.406       .  A
C2130      N2135   1.438       .  S
C2131      C2132   1.404       .  A
C2131      H2136   1.084       .  S
C2132      C2137   1.485       .  S
C2132      C2133   1.411   1_556  A
C2133      C2134   1.406       .  A
C2133      N2138   1.438       .  S
C2134      H2139   1.084       .  S
N2135      H2155   1.046       .  S
N2135      H2156   1.046       .  S
C2137      C2140   1.405   1_556  A
C2137      C2144   1.413       .  A
N2138      H2153   1.046       .  S
N2138      H2154   1.045       .  S
C2140      C2141   1.406       .  A
C2140      H2145   1.084       .  S
C2141      C2142   1.408   1_554  A
C2141      N2146   1.437       .  S
C2142      C2143   1.399       .  A
C2143      C2144   1.404       .  A
C2143      H2147   1.084       .  S
C2144      N2148   1.438       .  S
N2146      H2149   1.046       .  S
N2146      H2150   1.046       .  S
N2148      H2151   1.046       .  S
N2148      H2152   1.046       .  S
C2157      C2158   1.415   1_556  A
C2157      C2162   1.401       .  A
C2158      C2159   1.400       .  A
C2158      N2163   1.438       .  S
C2159      C2160   1.402   1_554  A
C2159      H2164   1.084       .  S
C2160      C2165   1.479       .  S
C2160      C2161   1.410       .  A
C2161      C2162   1.402       .  A
C2161      N2166   1.438       .  S
C2162      H2167   1.084       .  S
N2163      H2183   1.043       .  S
N2163      H2184   1.045       .  S
C2165      C2168   1.399       .  A
C2165      C2172   1.408   1_556  A
N2166      H2181   1.046       .  S
N2166      H2182   1.045       .  S
C2168      C2169   1.402       .  A
C2168      H2173   1.084       .  S
C2169      C2170   1.420       .  A
C2169      N2174   1.439       .  S
C2170      C2171   1.407   1_556  A
C2171      C2172   1.402       .  A
C2171      H2175   1.083       .  S
C2172      N2176   1.438       .  S
N2174      H2177   1.046       .  S
N2174      H2178   1.046   1_556  S
N2176      H2179   1.046       .  S
N2176      H2180   1.045   1_554  S
C2185      C2186   1.414       .  A
C2185      C2190   1.406   1_554  A
C2186      C2187   1.401       .  A
C2186      N2191   1.439       .  S
C2187      C2188   1.399   1_554  A
C2187      H2192   1.084       .  S
C2188      C2193   1.473       .  S
C2188      C2189   1.407       .  A
C2189      C2190   1.404       .  A
C2189      N2194   1.437       .  S
C2190      H2195   1.084       .  S
N2191      H2211   1.046       .  S
N2191      H2212   1.046       .  S
C2193      C2196   1.402       .  A
C2193      C2200   1.408   1_556  A
N2194      H2209   1.046       .  S
N2194      H2210   1.046       .  S
C2196      C2197   1.404       .  A
C2196      H2201   1.084       .  S
C2197      C2198   1.408       .  A
C2197      N2202   1.437       .  S
C2198      C2199   1.401   1_556  A
C2199      C2200   1.403       .  A
C2199      H2203   1.084       .  S
C2200      N2204   1.438       .  S
N2202      H2205   1.046       .  S
N2202      H2206   1.045       .  S
N2204      H2207   1.046       .  S
N2204      H2208   1.046       .  S
C2213      C2214   1.414       .  A
C2213      C2218   1.405   1_554  A
C2214      C2215   1.400       .  A
C2214      N2219   1.432       .  S
C2215      C2216   1.398   1_554  A
C2215      H2220   1.084       .  S
C2216      C2221   1.468       .  S
C2216      C2217   1.406       .  A
C2217      C2218   1.399       .  A
C2217      N2222   1.438       .  S
C2218      H2223   1.081       .  S
N2219      H2239   1.045       .  S
N2219      H2240   1.045       .  S
C2221      C2224   1.398   1_556  A
C2221      C2228   1.409       .  A
N2222      H2237   1.046       .  S
N2222      H2238   1.045       .  S
C2224      C2225   1.398       .  A
C2224      H2229   1.084       .  S
C2225      C2226   1.409   1_554  A
C2225      N2230   1.438       .  S
C2226      C2227   1.401       .  A
C2227      C2228   1.403       .  A
C2227      H2231   1.084       .  S
C2228      N2232   1.438       .  S
N2230      H2233   1.046       .  S
N2230      H2234   1.046       .  S
N2232      H2235   1.046       .  S
N2232      H2236   1.046       .  S
C2241      C2823   1.483       .  S
C2241      C3138   1.417       .  A
C2241      C2246   1.403       .  A
C2242      C3137   1.416       .  A
C2242      C2243   1.409       .  A
C2242      N2247   1.439       .  S
C2243      C3140   1.404       .  A
C2243      H2248   1.083       .  S
C2244      C2249   1.485       .  S
C2244      C3139   1.400       .  A
C2244      C2245   1.413       .  A
C2245      C2246   1.409       .  A
C2245      N2250   1.437       .  S
C2246      H2251   1.084       .  S
N2247      H2267   1.046       .  S
N2247      H2268   1.046       .  S
C2249      C3148   1.402       .  A
C2249      C2256   1.411       .  A
N2250      H2265   1.045       .  S
N2250      H2266   1.046       .  S
C2252      C3145   1.404   1_545  A
C2252      C2253   1.408       .  A
C2252      H2257   1.084       .  S
C2253      C3150   1.416       .  A
C2253      N2258   1.438       .  S
C2254      C3149   1.414       .  A
C2254      C2255   1.403       .  A
C2255      C2256   1.409       .  A
C2255      H2259   1.080       .  S
C2256      N2260   1.437       .  S
N2258      H2261   1.046       .  S
N2258      H2262   1.046       .  S
N2260      H2263   1.046       .  S
N2260      H2264   1.046       .  S
C2269      C2824   1.493       .  S
C2269      C2270   1.424       .  A
C2269      C3170   1.406       .  A
C2270      C2271   1.402       .  A
C2270      N2275   1.440       .  S
C2271      C3168   1.398       .  A
C2271      H2276   1.084       .  S
C2272      C2277   1.499       .  S
C2272      C3167   1.402   1_565  A
C2272      C2273   1.417       .  A
C2273      C2274   1.416       .  A
C2273      N2278   1.437       .  S
C2274      C3165   1.407       .  A
C2274      H2279   1.083       .  S
N2275      H2295   1.046       .  S
N2275      H2296   1.046       .  S
C2277      C3176   1.408       .  A
C2277      C2284   1.415   1_565  A
N2278      H2293   1.046       .  S
N2278      H2294   1.045       .  S
C2280      C3173   1.404       .  A
C2280      C2281   1.407       .  A
C2280      H2285   1.084       .  S
C2281      C2282   1.412       .  A
C2281      N2286   1.431       .  S
C2282      C3179   1.408       .  A
C2283      C3178   1.406       .  A
C2283      C2284   1.403       .  A
C2283      H2287   1.083       .  S
C2284      N2288   1.439       .  S
N2286      H2289   1.045       .  S
N2286      H2290   1.046       .  S
N2288      H2291   1.046       .  S
N2288      H2292   1.045       .  S
C2297      C2302   1.407       .  A
C2298      C2299   1.400       .  A
C2298      N2303   1.433       .  S
C2299      H2304   1.084       .  S
C2300      C2305   1.499       .  S
C2300      C2301   1.416       .  A
C2301      C2302   1.416       .  A
C2301      N2306   1.437       .  S
C2302      H2307   1.083       .  S
N2303      H2323   1.046       .  S
N2303      H2324   1.045       .  S
C2305      C2308   1.403       .  A
N2306      H2321   1.046       .  S
N2306      H2322   1.046       .  S
C2308      C2309   1.409       .  A
C2308      H2313   1.083   1_655  S
C2309      C2310   1.419       .  A
C2309      N2314   1.432   1_655  S
C2311      C2312   1.407       .  A
C2311      H2315   1.076       .  S
C2312      N2316   1.439       .  S
N2314      H2317   1.045   1_455  S
N2314      H2318   1.046       .  S
N2316      H2319   1.045       .  S
N2316      H2320   1.046       .  S
C2325      C2326   1.417   1_455  A
C2326      C2327   1.408       .  A
C2326      N2331   1.437       .  S
C2327      C2328   1.400       .  A
C2327      H2332   1.084       .  S
C2328      C2333   1.476       .  S
C2329      C2330   1.406       .  A
C2329      N2334   1.438       .  S
C2330      H2335   1.084       .  S
N2331      H2351   1.045       .  S
N2331      H2352   1.046       .  S
C2333      C2340   1.408       .  A
N2334      H2349   1.046       .  S
N2334      H2350   1.046       .  S
C2336      C2337   1.409       .  A
C2336      H2341   1.084       .  S
C2337      N2342   1.437       .  S
C2338      C2339   1.406       .  A
C2339      C2340   1.403       .  A
C2339      H2343   1.084       .  S
C2340      N2344   1.439       .  S
N2342      H2345   1.046       .  S
N2342      H2346   1.045       .  S
N2344      H2347   1.046       .  S
N2344      H2348   1.044       .  S
C2353      C2354   1.420       .  A
C2353      C2358   1.405       .  A
C2354      C2355   1.407       .  A
C2354      N2359   1.439       .  S
C2355      C2356   1.399       .  A
C2355      H2360   1.084       .  S
C2356      C2361   1.486       .  S
C2356      C2357   1.412       .  A
C2357      C2358   1.412       .  A
C2357      N2362   1.438       .  S
C2358      H2363   1.083       .  S
N2359      H2379   1.046       .  S
N2359      H2380   1.046       .  S
C2361      C2364   1.403       .  A
C2361      C2368   1.411       .  A
N2362      H2377   1.045       .  S
N2362      H2378   1.045       .  S
C2364      C2365   1.407       .  A
C2364      H2369   1.084       .  S
C2365      C2366   1.410       .  A
C2365      N2370   1.432       .  S
C2366      C2367   1.403       .  A
C2367      C2368   1.408       .  A
C2367      H2371   1.084       .  S
C2368      N2372   1.437       .  S
N2370      H2373   1.045       .  S
N2370      H2374   1.046       .  S
N2372      H2375   1.046       .  S
N2372      H2376   1.045       .  S
C2381      C2382   1.408       .  A
C2381      C2386   1.408       .  A
C2382      C2383   1.409       .  A
C2382      N2387   1.431       .  S
C2383      C2384   1.409       .  A
C2383      H2388   1.083       .  S
C2384      C2389   1.503       .  S
C2384      C2385   1.414       .  A
C2385      C2386   1.410       .  A
C2385      N2390   1.438       .  S
C2386      H2391   1.083       .  S
N2387      H2407   1.045       .  S
N2387      H2408   1.045       .  S
C2389      C2392   1.410       .  A
C2389      C2396   1.414       .  A
N2390      H2405   1.046       .  S
N2390      H2406   1.045       .  S
C2392      C2393   1.415       .  A
C2392      H2397   1.083       .  S
C2393      C2394   1.414       .  A
C2393      N2398   1.437       .  S
C2394      C2395   1.406       .  A
C2395      C2396   1.406       .  A
C2395      H2399   1.084       .  S
C2396      N2400   1.438       .  S
N2398      H2401   1.046       .  S
N2398      H2402   1.045       .  S
N2400      H2403   1.046       .  S
N2400      H2404   1.045       .  S
C2409      C2410   1.417       .  A
C2409      C2414   1.416       .  A
C2410      C2411   1.412       .  A
C2410      N2415   1.437       .  S
C2411      C2412   1.405       .  A
C2411      H2416   1.084       .  S
C2412      C2417   1.489       .  S
C2412      C2413   1.405       .  A
C2413      C2414   1.406       .  A
C2413      N2418   1.439       .  S
C2414      H2419   1.083       .  S
N2415      H2435   1.045       .  S
N2415      H2436   1.046       .  S
C2417      C2420   1.401       .  A
C2417      C2424   1.406       .  A
N2418      H2433   1.046       .  S
N2418      H2434   1.046       .  S
C2420      C2421   1.407       .  A
C2420      H2425   1.084       .  S
C2421      C2422   1.421       .  A
C2421      N2426   1.434       .  S
C2422      C2423   1.413       .  A
C2423      C2424   1.407       .  A
C2423      H2427   1.074       .  S
C2424      N2428   1.438       .  S
N2426      H2429   1.046       .  S
N2426      H2430   1.045       .  S
N2428      H2431   1.045       .  S
N2428      H2432   1.046       .  S
C2437      C2438   1.418       .  A
C2437      C2442   1.407       .  A
C2438      C2439   1.404       .  A
C2438      N2443   1.439       .  S
C2439      C2440   1.399       .  A
C2439      H2444   1.084       .  S
C2440      C2445   1.487       .  S
C2440      C2441   1.410       .  A
C2441      C2442   1.413       .  A
C2441      N2446   1.437       .  S
C2442      H2447   1.083       .  S
N2443      H2463   1.046       .  S
N2443      H2464   1.046       .  S
C2445      C2448   1.403       .  A
C2445      C2452   1.410       .  A
N2446      H2461   1.046       .  S
N2446      H2462   1.046       .  S
C2448      C2449   1.407       .  A
C2448      H2453   1.084       .  S
C2449      C2450   1.407       .  A
C2449      N2454   1.432       .  S
C2450      C2451   1.404       .  A
C2451      C2452   1.411       .  A
C2451      H2455   1.081       .  S
C2452      N2456   1.437       .  S
N2454      H2457   1.045       .  S
N2454      H2458   1.045       .  S
N2456      H2459   1.046       .  S
N2456      H2460   1.046       .  S
C2465      C2466   1.420       .  A
C2465      C2470   1.407       .  A
C2466      C2467   1.405       .  A
C2466      N2471   1.438       .  S
C2467      C2468   1.398       .  A
C2467      H2472   1.084       .  S
C2468      C2473   1.468       .  S
C2468      C2469   1.404       .  A
C2469      C2470   1.398       .  A
C2469      N2474   1.439       .  S
C2470      H2475   1.082       .  S
N2471      H2491   1.045       .  S
N2471      H2492   1.046       .  S
C2473      C2476   1.399       .  A
C2473      C2480   1.406       .  A
N2474      H2489   1.046       .  S
N2474      H2490   1.045       .  S
C2476      C2477   1.398       .  A
C2476      H2481   1.084       .  S
C2477      C2478   1.415       .  A
C2477      N2482   1.439       .  S
C2478      C2479   1.403       .  A
C2479      C2480   1.401       .  A
C2479      H2483   1.084       .  S
C2480      N2484   1.438       .  S
N2482      H2485   1.046       .  S
N2482      H2486   1.043       .  S
N2484      H2487   1.046       .  S
N2484      H2488   1.045       .  S
C2493      C2494   1.418       .  A
C2493      C2498   1.405       .  A
C2494      C2495   1.404       .  A
C2494      N2499   1.439       .  S
C2495      C2496   1.399       .  A
C2495      H2500   1.084       .  S
C2496      C2501   1.465       .  S
C2496      C2497   1.404       .  A
C2497      C2498   1.397       .  A
C2497      N2502   1.438       .  S
C2498      H2503   1.084       .  S
N2499      H2519   1.046       .  S
N2499      H2520   1.046       .  S
C2501      C2504   1.400       .  A
C2501      C2508   1.405       .  A
N2502      H2517   1.046       .  S
N2502      H2518   1.046       .  S
C2504      C2505   1.396       .  A
C2504      H2509   1.084       .  S
C2505      C2506   1.415       .  A
C2505      N2510   1.439       .  S
C2506      C2507   1.402       .  A
C2507      C2508   1.397       .  A
C2507      H2511   1.084       .  S
C2508      N2512   1.438       .  S
N2510      H2513   1.046       .  S
N2510      H2514   1.043       .  S
N2512      H2515   1.046       .  S
N2512      H2516   1.046       .  S
C2521      C2522   1.405       .  A
C2521      C2526   1.400       .  A
C2522      C2523   1.401       .  A
C2522      N2527   1.432       .  S
C2523      C2524   1.404       .  A
C2523      H2528   1.084       .  S
C2524      C2529   1.476       .  S
C2524      C2525   1.416       .  A
C2525      C2526   1.398       .  A
C2525      N2530   1.438       .  S
C2526      H2531   1.084       .  S
N2527      H2547   1.046       .  S
N2527      H2548   1.045       .  S
C2529      C2532   1.398       .  A
C2529      C2536   1.404       .  A
N2530      H2545   1.045       .  S
N2530      H2546   1.043       .  S
C2532      C2533   1.405       .  A
C2532      H2537   1.084       .  S
C2533      C2534   1.423       .  A
C2533      N2538   1.438       .  S
C2534      C2535   1.408       .  A
C2535      C2536   1.397       .  A
C2535      H2539   1.083       .  S
C2536      N2540   1.433       .  S
N2538      H2541   1.046       .  S
N2538      H2542   1.046       .  S
N2540      H2543   1.046       .  S
N2540      H2544   1.046       .  S
C2549      C2550   1.416       .  A
C2549      C2554   1.410       .  A
C2550      C2551   1.404       .  A
C2550      N2555   1.432       .  S
C2551      C2552   1.400       .  A
C2551      H2556   1.084       .  S
C2552      C2557   1.472       .  S
C2552      C2553   1.404       .  A
C2553      C2554   1.400       .  A
C2553      N2558   1.438       .  S
C2554      H2559   1.083       .  S
N2555      H2575   1.046       .  S
N2555      H2576   1.046       .  S
C2557      C2560   1.401       .  A
C2557      C2564   1.407       .  A
N2558      H2573   1.046       .  S
N2558      H2574   1.045       .  S
C2560      C2561   1.400       .  A
C2560      H2565   1.084       .  S
C2561      C2562   1.416       .  A
C2561      N2566   1.438       .  S
C2562      C2563   1.403       .  A
C2563      C2564   1.402       .  A
C2563      H2567   1.084       .  S
C2564      N2568   1.438       .  S
N2566      H2569   1.046       .  S
N2566      H2570   1.043       .  S
N2568      H2571   1.046       .  S
N2568      H2572   1.046       .  S
C2577      C2578   1.421       .  A
C2577      C2582   1.412       .  A
C2578      C2579   1.414       .  A
C2578      N2583   1.437       .  S
C2579      C2580   1.403       .  A
C2579      H2584   1.084       .  S
C2580      C2585   1.490       .  S
C2580      C2581   1.406       .  A
C2581      C2582   1.405       .  A
C2581      N2586   1.438       .  S
C2582      H2587   1.083       .  S
N2583      H2603   1.046       .  S
N2583      H2604   1.046       .  S
C2585      C2588   1.403       .  A
C2585      C2592   1.413       .  A
N2586      H2601   1.045       .  S
N2586      H2602   1.046       .  S
C2588      C2589   1.402       .  A
C2588      H2593   1.084       .  S
C2589      C2590   1.410       .  A
C2589      N2594   1.433       .  S
C2590      C2591   1.404       .  A
C2591      C2592   1.413       .  A
C2591      H2595   1.084       .  S
C2592      N2596   1.437       .  S
N2594      H2597   1.045       .  S
N2594      H2598   1.046       .  S
N2596      H2599   1.046       .  S
N2596      H2600   1.045       .  S
C2605      C2606   1.414       .  A
C2605      C2610   1.408       .  A
C2606      C2607   1.404       .  A
C2606      N2611   1.437       .  S
C2607      C2608   1.401       .  A
C2607      H2612   1.084       .  S
C2608      C2613   1.492       .  S
C2608      C2609   1.413       .  A
C2609      C2610   1.414       .  A
C2609      N2614   1.437       .  S
C2610      H2615   1.084       .  S
N2611      H2631   1.045       .  S
N2611      H2632   1.046       .  S
C2613      C2616   1.402       .  A
C2613      C2620   1.415       .  A
N2614      H2629   1.046       .  S
N2614      H2630   1.046       .  S
C2616      C2617   1.408       .  A
C2616      H2621   1.084       .  S
C2617      C2618   1.416       .  A
C2617      N2622   1.437       .  S
C2618      C2619   1.400       .  A
C2619      C2620   1.409       .  A
C2619      H2623   1.084       .  S
C2620      N2624   1.437       .  S
N2622      H2625   1.046       .  S
N2622      H2626   1.044       .  S
N2624      H2627   1.046       .  S
N2624      H2628   1.046       .  S
C2633      C2634   1.419       .  A
C2633      C2638   1.407       .  A
C2634      C2635   1.407       .  A
C2634      N2639   1.439       .  S
C2635      C2636   1.402       .  A
C2635      H2640   1.084       .  S
C2636      C2641   1.491       .  S
C2636      C2637   1.411       .  A
C2637      C2638   1.411       .  A
C2637      N2642   1.437       .  S
C2638      H2643   1.083       .  S
N2639      H2659   1.046       .  S
N2639      H2660   1.046       .  S
C2641      C2644   1.403       .  A
C2641      C2648   1.409       .  A
N2642      H2657   1.046       .  S
N2642      H2658   1.046       .  S
C2644      C2645   1.410       .  A
C2644      H2649   1.084       .  S
C2645      C2646   1.416       .  A
C2645      N2650   1.431       .  S
C2646      C2647   1.410       .  A
C2647      C2648   1.408       .  A
C2647      H2651   1.083       .  S
C2648      N2652   1.438       .  S
N2650      H2653   1.045       .  S
N2650      H2654   1.046       .  S
N2652      H2655   1.046       .  S
N2652      H2656   1.046       .  S
C2661      C2662   1.419       .  A
C2661      C2666   1.415       .  A
C2662      C2663   1.405       .  A
C2662      N2667   1.433       .  S
C2663      C2664   1.400       .  A
C2663      H2668   1.084       .  S
C2664      C2669   1.483       .  S
C2664      C2665   1.405       .  A
C2665      C2666   1.406       .  A
C2665      N2670   1.438       .  S
C2666      H2671   1.074       .  S
N2667      H2687   1.046       .  S
N2667      H2688   1.045       .  S
C2669      C2672   1.401       .  A
C2669      C2676   1.412       .  A
N2670      H2685   1.045       .  S
N2670      H2686   1.046       .  S
C2672      C2673   1.403       .  A
C2672      H2677   1.084       .  S
C2673      C2674   1.413       .  A
C2673      N2678   1.439       .  S
C2674      C2675   1.400       .  A
C2675      C2676   1.408       .  A
C2675      H2679   1.084       .  S
C2676      N2680   1.437       .  S
N2678      H2681   1.046       .  S
N2678      H2682   1.045       .  S
N2680      H2683   1.046       .  S
N2680      H2684   1.046       .  S
O2689      C2700   1.297       .  A
O2689     Eu2725   2.495       .  S
O2690      C2701   1.298       .  A
O2690     Eu2724   2.500       .  S
O2691      C2702   1.286       .  A
O2691     Eu2697   2.433       .  S
O2692      C2703   1.289       .  A
O2692     Eu2697   2.439       .  S
O2693      C2703   1.286       .  A
O2693     Eu2727   2.436       .  S
O2694      C2702   1.293       .  A
O2694     Eu2726   2.470       .  S
O2695      C2701   1.287       .  A
O2695     Eu2697   2.428       .  S
O2696      C2700   1.289       .  A
O2696     Eu2697   2.445       .  S
Eu2697     O2707   2.342       .  S
Eu2697     O2699   2.340       .  S
Eu2697     O2698   2.340       .  S
Eu2697     O2705   2.354       .  S
O2698     Eu2727   2.344       .  S
O2698     Eu2724   2.361       .  S
O2699     Eu2725   2.362       .  S
O2699     Eu2726   2.346       .  S
C2700      C3570   1.487       .  S
C2701      C3305   1.498       .  S
C2702      C3361   1.489       .  S
C2703      C3389   1.483       .  S
H2704      O2705   0.965       .  S
O2705     Eu2726   2.341       .  S
O2705     Eu2724   2.361       .  S
H2706      O2707   0.966       .  S
O2707     Eu2725   2.366       .  S
O2707     Eu2727   2.359       .  S
O2708      C2731   1.296       .  A
O2708     Eu2724   2.491       .  S
O2709      C2732   1.296       .  A
O2709     Eu2725   2.486       .  S
O2710      C2733   1.286       .  A
O2710     Eu2726   2.430       .  S
O2711      C2734   1.292       .  A
O2711     Eu2727   2.461       .  S
O2712      C2735   1.292       .  A
O2712     Eu2727   2.453       .  S
O2713      C2736   1.285       .  A
O2713     Eu2726   2.422       .  S
O2714      C2737   1.289       .  A
O2714     Eu2728   2.442       .  S
O2715      C2738   1.289       .  A
O2715     Eu2728   2.447       .  S
O2716      C2737   1.289       .  A
O2716     Eu2726   2.451       .  S
O2717      C2738   1.290       .  A
O2717     Eu2727   2.458       .  S
O2718      C2733   1.299       .  A
O2718     Eu2724   2.503       .  S
O2719      C2736   1.302       .  A
O2719     Eu2725   2.523       .  S
O2720      C2735   1.300       .  A
O2720     Eu2725   2.511       .  S
O2721      C2734   1.295       .  A
O2721     Eu2724   2.477       .  S
O2722      C2731   1.291       .  A
O2722     Eu2728   2.454       .  S
O2723      C2732   1.288       .  A
O2723     Eu2728   2.440       .  S
Eu2724     O2742   2.371       .  S
Eu2724     O2730   2.358       .  S
Eu2725     O2729   2.375       .  S
Eu2725     O2740   2.365       .  S
Eu2726     O2740   2.351       .  S
Eu2726     O2730   2.350       .  S
Eu2727     O2729   2.350       .  S
Eu2727     O2742   2.347       .  S
Eu2728     O2729   2.350       .  S
Eu2728     O2740   2.353       .  S
Eu2728     O2742   2.347       .  S
Eu2728     O2730   2.348       .  S
C2731      C3333   1.487       .  S
C2732      C3529   1.491       .  S
C2733      C3249   1.496       .  S
C2734      C3290   1.484       .  S
C2735      C3473   1.511       .  S
C2736      C3501   1.493       .  S
C2737      C3445   1.486       .  S
C2738      C3430   1.491       .  S
H2739      O2740   0.966       .  S
H2741      O2742   0.966       .  S
N2743      H2775   1.039       .  S
N2743      C2747   1.348       .  A
N2744      C2752   1.351       .  A
N2745      H2776   1.035       .  S
N2745      C2749   1.351       .  A
N2746      C2754   1.348       .  A
C2747      C2755   1.387       .  A
C2747      C2763   1.409       .  A
C2748      C2764   1.408       .  A
C2748      C2756   1.385   1_565  A
C2749      C2757   1.387       .  A
C2749      C2766   1.414       .  A
C2750      C2765   1.410       .  A
C2750      C2758   1.387       .  A
C2751      C2763   1.408       .  A
C2751      C2759   1.386       .  A
C2752      C2766   1.413       .  A
C2752      C2760   1.386       .  A
C2753      C2761   1.385       .  A
C2753      C2764   1.404       .  A
C2754      C2762   1.386       .  A
C2754      C2765   1.408       .  A
C2755      H2767   1.082       .  S
C2756      H2768   1.082   1_545  S
C2757      H2769   1.082       .  S
C2758      H2770   1.082       .  S
C2759      H2771   1.082       .  S
C2760      H2772   1.082       .  S
C2761      H2773   1.082       .  S
C2762      H2774   1.082       .  S
C2763      C3402   1.476       .  S
C2764      C3417   1.480       .  S
C2765      C3458   1.478       .  S
C2766      C3374   1.483       .  S
O2777      C2788   1.295       .  A
O2777     Eu2813   2.478       .  S
O2778      C2789   1.294   1_655  A
O2778     Eu2812   2.481       .  S
O2779      C2790   1.289       .  A
O2780      C2791   1.286       .  A
O2780     Eu2785   2.436   1_655  S
O2781      C2791   1.293       .  A
O2781     Eu2815   2.466       .  S
O2782      C2790   1.291       .  A
O2782     Eu2814   2.458       .  S
O2783      C2789   1.293       .  A
O2783     Eu2785   2.465       .  S
O2784      C2788   1.291       .  A
O2784     Eu2785   2.452   1_556  S
Eu2785     O2795   2.352   1_454  S
Eu2785     O2786   2.341   1_455  S
O2786     Eu2815   2.347       .  S
O2786     Eu2812   2.360       .  S
O2787     Eu2814   2.341   1_556  S
C2788      C3221   1.485       .  S
C2789      C2982   1.502       .  S
C2790      C3025   1.478       .  S
C2791      C3066   1.493       .  S
H2792      O2793   0.967       .  S
O2793     Eu2814   2.354       .  S
H2794      O2795   0.967       .  S
O2795     Eu2813   2.372   1_655  S
O2795     Eu2815   2.342   1_556  S
O2796      C2819   1.292       .  A
O2797      C2820   1.295       .  A
O2798      C2821   1.289       .  A
O2798     Eu2814   2.442       .  S
O2799      C2822   1.289       .  A
O2799     Eu2815   2.444       .  S
O2800     Eu2815   2.452   1_556  S
O2801     Eu2814   2.443   1_556  S
O2802      C2825   1.287       .  A
O2803      C2826   1.287       .  A
O2803     Eu2816   2.441       .  S
O2804      C2825   1.290       .  A
O2805      C2826   1.290       .  A
O2806      C2821   1.300       .  A
O2807      C2824   1.299       .  A
O2808      C2823   1.297       .  A
O2809      C2822   1.292       .  A
O2809     Eu2812   2.464       .  S
O2810      C2819   1.292       .  A
O2810     Eu2816   2.461   1_554  S
O2811      C2820   1.291   1_655  A
O2811     Eu2816   2.462       .  S
Eu2816     O2817   2.347       .  S
Eu2816     O2830   2.350   1_556  S
C2819      C2997   1.477       .  S
C2820      C3193   1.489       .  S
C2821      C2926   1.495       .  S
C2822      C2941   1.475       .  S
C2825      C3109   1.483       .  S
C2826      C3081   1.487       .  S
H2827      O2828   0.965       .  S
H2829      O2830   0.967       .  S
N2831      H2863   1.038       .  S
N2831      C2836   1.353       .  A
N2831      C2835   1.350       .  A
N2832      C2839   1.350       .  A
N2832      C2840   1.351       .  A
N2833      H2864   1.037       .  S
N2833      C2838   1.350       .  A
N2833      C2837   1.352       .  A
N2834      C2841   1.349       .  A
N2834      C2842   1.348       .  A
C2835      C2843   1.388       .  A
C2835      C2851   1.412       .  A
C2836      C2852   1.411       .  A
C2836      C2844   1.386       .  A
C2837      C2845   1.387       .  A
C2837      C2854   1.412       .  A
C2838      C2853   1.411       .  A
C2838      C2846   1.387       .  A
C2839      C2851   1.412       .  A
C2839      C2847   1.387       .  A
C2840      C2854   1.411       .  A
C2840      C2848   1.385       .  A
C2841      C2849   1.385       .  A
C2841      C2852   1.406       .  A
C2842      C2850   1.388       .  A
C2842      C2853   1.408       .  A
C2843      C2844   1.374       .  A
C2843      H2855   1.082   1_556  S
C2844      H2856   1.082   1_556  S
C2845      C2846   1.373       .  A
C2845      H2857   1.082   1_556  S
C2846      H2858   1.082   1_556  S
C2847      C2848   1.372       .  A
C2847      H2859   1.082       .  S
C2848      H2860   1.082       .  S
C2849      C2850   1.370       .  A
C2849      H2861   1.082       .  S
C2850      H2862   1.082       .  S
C2851      C3053   1.478       .  S
C2852      C3094   1.479       .  S
C2853      C3122   1.474       .  S
C2854      C3038   1.481       .  S
C2865      C2871   1.553       .  S
C2865      C2869   1.536   1_455  S
C2865      C3010   1.545       .  S
C2866      H2873   1.086       .  S
C2866      C2867   1.366       .  D
C2867      C3486   1.489       .  S
C2868      C2872   1.536   1_655  S
C2868      C2870   1.549       .  S
C2868      H2874   1.110       .  S
C2869      H2875   1.085       .  S
C2869      C2870   1.368       .  D
C2870      C3514   1.498       .  S
C2871      H2876   1.080       .  S
C2871      C2872   1.366       .  D
C2872      C2969   1.489       .  S
C2877      C2878   1.545       .  S
C2877      C2881   1.530       .  S
C2877      C3557   1.546       .  S
C2878      H2885   1.081       .  S
C2879      C2880   1.538   1_545  S
C2879      C2954   1.476   1_545  S
C2880      C2884   1.542       .  S
C2880      C2882   1.547   1_565  S
C2880      H2886   1.108       .  S
C2881      H2887   1.086       .  S
C2882      C2913   1.495       .  S
C2883      H2888   1.086       .  S
C2883      C2884   1.371   1_545  D
C2884      C3542   1.494       .  S
C2889      C2890   1.531       .  S
C2889      C2895   1.551       .  S
C2889      C3206   1.547       .  S
C2890      H2897   1.086       .  S
C2890      C2891   1.365       .  D
C2891      C2892   1.549       .  S
C2891      C3262   1.492       .  S
C2892      C2896   1.541       .  S
C2892      H2898   1.109       .  S
C2893      H2899   1.087       .  S
C2893      C2894   1.365       .  D
C2894      C3277   1.489       .  S
C2895      H2900   1.081       .  S
C2895      C2896   1.368       .  D
C2896      C3234   1.493       .  S
C2901      C2902   1.533       .  S
C2901      C2905   1.545       .  S
C2901      C3318   1.548       .  S
C2902      H2909   1.086       .  S
C2903      C2904   1.550   1_545  S
C2903      C3178   1.500       .  S
C2904      C2908   1.545       .  S
C2904      C2906   1.547   1_565  S
C2904      H2910   1.109       .  S
C2905      H2911   1.079       .  S
C2906      C3150   1.502       .  S
C2907      H2912   1.087       .  S
C2907      C2908   1.365   1_545  D
C2908      C3346   1.486       .  S
C2913      C2914   1.409   1_545  A
C2914      C2915   1.407       .  A
C2914      N2919   1.431       .  S
C2915      C2916   1.406       .  A
C2915      H2920   1.084       .  S
C2916      C2921   1.495       .  S
C2917      C2918   1.404       .  A
C2917      N2922   1.438       .  S
C2918      H2923   1.083       .  S
N2919      H2939   1.046       .  S
N2919      H2940   1.045       .  S
C2921      C2924   1.407       .  A
N2922      H2937   1.045       .  S
N2922      H2938   1.046       .  S
C2924      C2925   1.414       .  A
C2924      H2929   1.083       .  S
C2925      C2926   1.414       .  A
C2925      N2930   1.436       .  S
C2927      C2928   1.403       .  A
C2927      H2931   1.084       .  S
C2928      N2932   1.438       .  S
N2930      H2933   1.046       .  S
N2930      H2934   1.046       .  S
N2932      H2935   1.046       .  S
N2932      H2936   1.046       .  S
C2941      C2942   1.413       .  A
C2942      C2943   1.403       .  A
C2942      N2947   1.439       .  S
C2943      C2944   1.400       .  A
C2943      H2948   1.084       .  S
C2944      C2949   1.479       .  S
C2945      C2946   1.412       .  A
C2945      N2950   1.437       .  S
C2946      H2951   1.083       .  S
N2947      H2967   1.046       .  S
N2947      H2968   1.046       .  S
C2949      C2952   1.400       .  A
N2950      H2965   1.046       .  S
N2950      H2966   1.046       .  S
C2952      C2953   1.403       .  A
C2952      H2957   1.084       .  S
C2953      C2954   1.411       .  A
C2953      N2958   1.438       .  S
C2955      C2956   1.413       .  A
C2955      H2959   1.083       .  S
C2956      N2960   1.438       .  S
N2958      H2961   1.046       .  S
N2958      H2962   1.045   1_565  S
N2960      H2963   1.046       .  S
N2960      H2964   1.046       .  S
C2969      C2970   1.411   1_455  A
C2970      C2971   1.411       .  A
C2970      N2975   1.436       .  S
C2971      C2972   1.404   1_655  A
C2971      H2976   1.084       .  S
C2972      C2977   1.488       .  S
C2973      C2974   1.406       .  A
C2973      N2978   1.438       .  S
C2974      H2979   1.084       .  S
N2975      H2995   1.044       .  S
N2975      H2996   1.045       .  S
C2977      C2984   1.408   1_455  A
N2978      H2993   1.046       .  S
N2978      H2994   1.045       .  S
C2980      C2981   1.412       .  A
C2980      H2985   1.084       .  S
C2981      N2986   1.436       .  S
C2982      C2983   1.410   1_455  A
C2983      C2984   1.405       .  A
C2983      H2987   1.082       .  S
C2984      N2988   1.439       .  S
N2986      H2989   1.046       .  S
N2986      H2990   1.045       .  S
N2988      H2991   1.046       .  S
N2988      H2992   1.044   1_655  S
C2997      C2998   1.408       .  A
C2998      C2999   1.402       .  A
C2998      N3003   1.438       .  S
C2999      C3000   1.404       .  A
C2999      H3004   1.084       .  S
C3000      C3005   1.491   1_655  S
C3001      C3002   1.407       .  A
C3001      N3006   1.437       .  S
C3002      H3007   1.084       .  S
N3003      H3023   1.046       .  S
N3003      H3024   1.045       .  S
C3005      C3012   1.409       .  A
N3006      H3021   1.046       .  S
N3006      H3022   1.046       .  S
C3008      C3009   1.406       .  A
C3008      H3013   1.084       .  S
C3009      N3014   1.433       .  S
C3010      C3011   1.411       .  A
C3011      C3012   1.405       .  A
C3011      H3015   1.073       .  S
C3012      N3016   1.439       .  S
N3014      H3017   1.046       .  S
N3014      H3018   1.046       .  S
N3016      H3019   1.045       .  S
N3016      H3020   1.046       .  S
C3025      C3026   1.413   1_554  A
C3025      C3030   1.406       .  A
C3026      C3027   1.403       .  A
C3026      N3031   1.438       .  S
C3027      C3028   1.400       .  A
C3027      H3032   1.084       .  S
C3028      C3033   1.476       .  S
C3028      C3029   1.408   1_556  A
C3029      C3030   1.404       .  A
C3029      N3034   1.438       .  S
C3030      H3035   1.084       .  S
N3031      H3051   1.046       .  S
N3031      H3052   1.046       .  S
C3033      C3036   1.403   1_556  A
C3033      C3040   1.409       .  A
N3034      H3049   1.046       .  S
N3034      H3050   1.046       .  S
C3036      C3037   1.405       .  A
C3036      H3041   1.084       .  S
C3037      C3038   1.410   1_554  A
C3037      N3042   1.437       .  S
C3038      C3039   1.400       .  A
C3039      C3040   1.402       .  A
C3039      H3043   1.084       .  S
C3040      N3044   1.438       .  S
N3042      H3045   1.046       .  S
N3042      H3046   1.045       .  S
N3044      H3047   1.046       .  S
N3044      H3048   1.046       .  S
C3053      C3054   1.415   1_556  A
C3053      C3058   1.402       .  A
C3054      C3055   1.397       .  A
C3054      N3059   1.439       .  S
C3055      C3056   1.399   1_554  A
C3055      H3060   1.084       .  S
C3056      C3061   1.472       .  S
C3056      C3057   1.408       .  A
C3057      C3058   1.404       .  A
C3057      N3062   1.438       .  S
C3058      H3063   1.084       .  S
N3059      H3079   1.043       .  S
N3059      H3080   1.045       .  S
C3061      C3064   1.396       .  A
C3061      C3068   1.405       .  A
N3062      H3077   1.046       .  S
N3062      H3078   1.046       .  S
C3064      C3065   1.404       .  A
C3064      H3069   1.084       .  S
C3065      C3066   1.424   1_556  A
C3065      N3070   1.438   1_556  S
C3066      C3067   1.409       .  A
C3067      C3068   1.403   1_554  A
C3067      H3071   1.083       .  S
C3068      N3072   1.438       .  S
N3070      H3073   1.046   1_554  S
N3070      H3074   1.045       .  S
N3072      H3075   1.045   1_556  S
N3072      H3076   1.046       .  S
C3081      C3082   1.417       .  A
C3081      C3086   1.411       .  A
C3082      C3083   1.396       .  A
C3082      N3087   1.433   1_556  S
C3083      C3084   1.395       .  A
C3083      H3088   1.084       .  S
C3084      C3089   1.469       .  S
C3084      C3085   1.406       .  A
C3085      C3086   1.405       .  A
C3085      N3090   1.438       .  S
C3086      H3091   1.083       .  S
N3087      H3107   1.045       .  S
N3087      H3108   1.046   1_554  S
C3089      C3092   1.400       .  A
C3089      C3096   1.408   1_556  A
N3090      H3105   1.046       .  S
N3090      H3106   1.044       .  S
C3092      C3093   1.401       .  A
C3092      H3097   1.084       .  S
C3093      C3094   1.407       .  A
C3093      N3098   1.437       .  S
C3094      C3095   1.402   1_556  A
C3095      C3096   1.404       .  A
C3095      H3099   1.084       .  S
C3096      N3100   1.438       .  S
N3098      H3101   1.046       .  S
N3098      H3102   1.045       .  S
N3100      H3103   1.046       .  S
N3100      H3104   1.044       .  S
C3109      C3110   1.420       .  A
C3109      C3114   1.408   1_556  A
C3110      C3111   1.399       .  A
C3110      N3115   1.439       .  S
C3111      C3112   1.396       .  A
C3111      H3116   1.084       .  S
C3112      C3117   1.473       .  S
C3112      C3113   1.408       .  A
C3113      C3114   1.403   1_556  A
C3113      N3118   1.438   1_556  S
C3114      H3119   1.083       .  S
N3115      H3135   1.046       .  S
N3115      H3136   1.046       .  S
C3117      C3120   1.401   1_556  A
C3117      C3124   1.412       .  A
N3118      H3133   1.046       .  S
N3118      H3134   1.046   1_554  S
C3120      C3121   1.399       .  A
C3120      H3125   1.084       .  S
C3121      C3122   1.407   1_554  A
C3121      N3126   1.438       .  S
C3122      C3123   1.399       .  A
C3123      C3124   1.402       .  A
C3123      H3127   1.084       .  S
C3124      N3128   1.438       .  S
N3126      H3129   1.045       .  S
N3126      H3130   1.045       .  S
N3128      H3131   1.046       .  S
N3128      H3132   1.045       .  S
C3137      C3142   1.404   1_565  A
C3138      C3139   1.405       .  A
C3138      N3143   1.439       .  S
C3139      H3144   1.084       .  S
C3140      C3145   1.498       .  S
C3140      C3141   1.416   1_565  A
C3141      C3142   1.411       .  A
C3141      N3146   1.437       .  S
C3142      H3147   1.084       .  S
N3143      H3163   1.046       .  S
N3143      H3164   1.046       .  S
C3145      C3152   1.414       .  A
N3146      H3161   1.046       .  S
N3146      H3162   1.045       .  S
C3148      C3149   1.404       .  A
C3148      H3153   1.084       .  S
C3149      N3154   1.438       .  S
C3150      C3151   1.405   1_545  A
C3151      C3152   1.413       .  A
C3151      H3155   1.080       .  S
C3152      N3156   1.437       .  S
N3154      H3157   1.046       .  S
N3154      H3158   1.046       .  S
N3156      H3159   1.046       .  S
N3156      H3160   1.045       .  S
C3165      C3166   1.411   1_565  A
C3166      C3167   1.398       .  A
C3166      N3171   1.431       .  S
C3167      H3172   1.084       .  S
C3168      C3173   1.489       .  S
C3168      C3169   1.412       .  A
C3169      C3170   1.411       .  A
C3169      N3174   1.437       .  S
C3170      H3175   1.083       .  S
N3171      H3191   1.046       .  S
N3171      H3192   1.045       .  S
C3173      C3180   1.411       .  A
N3174      H3189   1.046       .  S
N3174      H3190   1.045       .  S
C3176      C3177   1.412       .  A
C3176      H3181   1.083       .  S
C3177      C3178   1.413   1_565  A
C3177      N3182   1.431       .  S
C3179      C3180   1.404       .  A
C3179      H3183   1.083       .  S
C3180      N3184   1.439       .  S
N3182      H3185   1.045       .  S
N3182      H3186   1.045       .  S
N3184      H3187   1.046       .  S
N3184      H3188   1.046       .  S
C3193      C3198   1.405   1_455  A
C3194      C3195   1.412       .  A
C3194      N3199   1.438       .  S
C3195      H3200   1.084       .  S
C3196      C3201   1.498       .  S
C3196      C3197   1.415   1_455  A
C3197      C3198   1.412       .  A
C3197      N3202   1.437       .  S
C3198      H3203   1.084       .  S
N3199      H3219   1.046       .  S
N3199      H3220   1.046       .  S
C3201      C3204   1.402       .  A
N3202      H3217   1.046       .  S
N3202      H3218   1.045       .  S
C3204      C3205   1.412       .  A
C3204      H3209   1.083       .  S
C3205      C3206   1.426   1_455  A
C3205      N3210   1.439       .  S
C3207      C3208   1.409       .  A
C3207      H3211   1.078       .  S
C3208      N3212   1.439       .  S
N3210      H3213   1.044   1_455  S
N3210      H3214   1.046       .  S
N3212      H3215   1.045       .  S
N3212      H3216   1.045       .  S
C3221      C3222   1.415   1_455  A
C3222      C3223   1.411       .  A
C3222      N3227   1.438       .  S
C3223      C3224   1.403   1_655  A
C3223      H3228   1.083       .  S
C3224      C3229   1.486   1_455  S
C3225      C3226   1.407       .  A
C3225      N3230   1.438       .  S
C3226      H3231   1.084       .  S
N3227      H3247   1.045       .  S
N3227      H3248   1.045       .  S
C3229      C3236   1.409       .  A
N3230      H3245   1.046       .  S
N3230      H3246   1.046       .  S
C3232      C3233   1.409       .  A
C3232      H3237   1.084       .  S
C3233      N3238   1.437       .  S
C3234      C3235   1.405       .  A
C3235      C3236   1.408       .  A
C3235      H3239   1.084       .  S
C3236      N3240   1.438       .  S
N3238      H3241   1.046       .  S
N3238      H3242   1.045       .  S
N3240      H3243   1.045       .  S
N3240      H3244   1.046       .  S
C3249      C3250   1.423       .  A
C3249      C3254   1.406       .  A
C3250      C3251   1.407       .  A
C3250      N3255   1.439       .  S
C3251      C3252   1.398       .  A
C3251      H3256   1.084       .  S
C3252      C3257   1.486       .  S
C3252      C3253   1.410       .  A
C3253      C3254   1.411       .  A
C3253      N3258   1.437       .  S
C3254      H3259   1.083       .  S
N3255      H3275   1.046       .  S
N3255      H3276   1.046       .  S
C3257      C3260   1.403       .  A
C3257      C3264   1.409       .  A
N3258      H3273   1.046       .  S
N3258      H3274   1.045       .  S
C3260      C3261   1.409       .  A
C3260      H3265   1.084       .  S
C3261      C3262   1.409       .  A
C3261      N3266   1.431       .  S
C3262      C3263   1.407       .  A
C3263      C3264   1.408       .  A
C3263      H3267   1.084       .  S
C3264      N3268   1.438       .  S
N3266      H3269   1.045       .  S
N3266      H3270   1.045       .  S
N3268      H3271   1.046       .  S
N3268      H3272   1.045       .  S
C3277      C3278   1.406       .  A
C3277      C3282   1.405       .  A
C3278      C3279   1.408       .  A
C3278      N3283   1.432       .  S
C3279      C3280   1.409       .  A
C3279      H3284   1.084       .  S
C3280      C3285   1.493       .  S
C3280      C3281   1.411       .  A
C3281      C3282   1.405       .  A
C3281      N3286   1.438       .  S
C3282      H3287   1.084       .  S
N3283      H3303   1.045       .  S
N3283      H3304   1.045       .  S
C3285      C3288   1.407       .  A
C3285      C3292   1.412       .  A
N3286      H3301   1.046       .  S
N3286      H3302   1.045       .  S
C3288      C3289   1.411       .  A
C3288      H3293   1.083       .  S
C3289      C3290   1.413       .  A
C3289      N3294   1.437       .  S
C3290      C3291   1.405       .  A
C3291      C3292   1.406       .  A
C3291      H3295   1.084       .  S
C3292      N3296   1.438       .  S
N3294      H3297   1.046       .  S
N3294      H3298   1.045       .  S
N3296      H3299   1.046       .  S
N3296      H3300   1.046       .  S
C3305      C3306   1.416       .  A
C3305      C3310   1.412       .  A
C3306      C3307   1.414       .  A
C3306      N3311   1.437       .  S
C3307      C3308   1.406       .  A
C3307      H3312   1.083       .  S
C3308      C3313   1.488       .  S
C3308      C3309   1.405       .  A
C3309      C3310   1.402       .  A
C3309      N3314   1.438       .  S
C3310      H3315   1.082       .  S
N3311      H3331   1.046       .  S
N3311      H3332   1.045       .  S
C3313      C3316   1.401       .  A
C3313      C3320   1.404       .  A
N3314      H3329   1.046       .  S
N3314      H3330   1.046       .  S
C3316      C3317   1.410       .  A
C3316      H3321   1.084       .  S
C3317      C3318   1.422       .  A
C3317      N3322   1.437       .  S
C3318      C3319   1.416       .  A
C3319      C3320   1.407       .  A
C3319      H3323   1.073       .  S
C3320      N3324   1.439       .  S
N3322      H3325   1.046       .  S
N3322      H3326   1.044       .  S
N3324      H3327   1.045       .  S
N3324      H3328   1.046       .  S
C3333      C3334   1.412       .  A
C3333      C3338   1.407       .  A
C3334      C3335   1.403       .  A
C3334      N3339   1.433       .  S
C3335      C3336   1.401       .  A
C3335      H3340   1.084       .  S
C3336      C3341   1.486       .  S
C3336      C3337   1.411       .  A
C3337      C3338   1.413       .  A
C3337      N3342   1.437       .  S
C3338      H3343   1.083       .  S
N3339      H3359   1.046       .  S
N3339      H3360   1.045       .  S
C3341      C3344   1.401       .  A
C3341      C3348   1.411       .  A
N3342      H3357   1.046       .  S
N3342      H3358   1.046       .  S
C3344      C3345   1.406       .  A
C3344      H3349   1.084       .  S
C3345      C3346   1.412       .  A
C3345      N3350   1.438       .  S
C3346      C3347   1.402       .  A
C3347      C3348   1.410       .  A
C3347      H3351   1.080       .  S
C3348      N3352   1.437       .  S
N3350      H3353   1.045       .  S
N3350      H3354   1.046       .  S
N3352      H3355   1.046       .  S
N3352      H3356   1.046       .  S
C3361      C3362   1.419       .  A
C3361      C3366   1.407       .  A
C3362      C3363   1.402       .  A
C3362      N3367   1.432       .  S
C3363      C3364   1.397       .  A
C3363      H3368   1.084       .  S
C3364      C3369   1.472       .  S
C3364      C3365   1.406       .  A
C3365      C3366   1.403       .  A
C3365      N3370   1.438       .  S
C3366      H3371   1.082       .  S
N3367      H3387   1.046       .  S
N3367      H3388   1.045       .  S
C3369      C3372   1.399       .  A
C3369      C3376   1.408       .  A
N3370      H3385   1.046       .  S
N3370      H3386   1.044       .  S
C3372      C3373   1.398       .  A
C3372      H3377   1.084       .  S
C3373      C3374   1.417       .  A
C3373      N3378   1.439       .  S
C3374      C3375   1.403       .  A
C3375      C3376   1.403       .  A
C3375      H3379   1.084       .  S
C3376      N3380   1.438       .  S
N3378      H3381   1.046       .  S
N3378      H3382   1.043       .  S
N3380      H3383   1.046       .  S
N3380      H3384   1.044       .  S
C3389      C3390   1.417       .  A
C3389      C3394   1.408       .  A
C3390      C3391   1.400       .  A
C3390      N3395   1.433       .  S
C3391      C3392   1.399       .  A
C3391      H3396   1.084       .  S
C3392      C3397   1.470       .  S
C3392      C3393   1.405       .  A
C3393      C3394   1.398       .  A
C3393      N3398   1.438       .  S
C3394      H3399   1.083       .  S
N3395      H3415   1.046       .  S
N3395      H3416   1.046       .  S
C3397      C3400   1.401       .  A
C3397      C3404   1.407       .  A
N3398      H3413   1.046       .  S
N3398      H3414   1.046       .  S
C3400      C3401   1.395       .  A
C3400      H3405   1.084       .  S
C3401      C3402   1.415       .  A
C3401      N3406   1.439       .  S
C3402      C3403   1.402       .  A
C3403      C3404   1.401       .  A
C3403      H3407   1.084       .  S
C3404      N3408   1.438       .  S
N3406      H3409   1.046       .  S
N3406      H3410   1.043       .  S
N3408      H3411   1.046       .  S
N3408      H3412   1.046       .  S
C3417      C3418   1.406       .  A
C3417      C3422   1.401       .  A
C3418      C3419   1.399       .  A
C3418      N3423   1.432       .  S
C3419      C3420   1.402       .  A
C3419      H3424   1.084       .  S
C3420      C3425   1.474       .  S
C3420      C3421   1.417       .  A
C3421      C3422   1.401       .  A
C3421      N3426   1.439       .  S
C3422      H3427   1.084       .  S
N3423      H3443   1.046       .  S
N3423      H3444   1.045       .  S
C3425      C3428   1.397       .  A
C3425      C3432   1.406       .  A
N3426      H3441   1.045       .  S
N3426      H3442   1.043       .  S
C3428      C3429   1.403       .  A
C3428      H3433   1.084       .  S
C3429      C3430   1.420       .  A
C3429      N3434   1.438       .  S
C3430      C3431   1.411       .  A
C3431      C3432   1.406       .  A
C3431      H3435   1.083       .  S
C3432      N3436   1.438       .  S
N3434      H3437   1.046       .  S
N3434      H3438   1.046       .  S
N3436      H3439   1.046       .  S
N3436      H3440   1.045       .  S
C3445      C3446   1.419       .  A
C3445      C3450   1.409       .  A
C3446      C3447   1.406       .  A
C3446      N3451   1.438       .  S
C3447      C3448   1.399       .  A
C3447      H3452   1.084       .  S
C3448      C3453   1.470       .  S
C3448      C3449   1.403       .  A
C3449      C3450   1.399       .  A
C3449      N3454   1.438       .  S
C3450      H3455   1.083       .  S
N3451      H3471   1.046       .  S
N3451      H3472   1.046       .  S
C3453      C3456   1.400       .  A
C3453      C3460   1.407       .  A
N3454      H3469   1.046       .  S
N3454      H3470   1.046       .  S
C3456      C3457   1.397       .  A
C3456      H3461   1.084       .  S
C3457      C3458   1.416       .  A
C3457      N3462   1.439       .  S
C3458      C3459   1.403       .  A
C3459      C3460   1.401       .  A
C3459      H3463   1.084       .  S
C3460      N3464   1.438       .  S
N3462      H3465   1.046       .  S
N3462      H3466   1.043       .  S
N3464      H3467   1.046       .  S
N3464      H3468   1.046       .  S
C3473      C3474   1.421       .  A
C3473      C3478   1.415       .  A
C3474      C3475   1.416       .  A
C3474      N3479   1.437       .  S
C3475      C3476   1.404       .  A
C3475      H3480   1.084       .  S
C3476      C3481   1.493       .  S
C3476      C3477   1.406       .  A
C3477      C3478   1.408       .  A
C3477      N3482   1.438       .  S
C3478      H3483   1.083       .  S
N3479      H3499   1.046       .  S
N3479      H3500   1.046       .  S
C3481      C3484   1.403       .  A
C3481      C3488   1.413       .  A
N3482      H3497   1.045       .  S
N3482      H3498   1.046       .  S
C3484      C3485   1.405       .  A
C3484      H3489   1.084       .  S
C3485      C3486   1.409       .  A
C3485      N3490   1.432       .  S
C3486      C3487   1.405       .  A
C3487      C3488   1.414       .  A
C3487      H3491   1.084       .  S
C3488      N3492   1.437       .  S
N3490      H3493   1.046       .  S
N3490      H3494   1.045       .  S
N3492      H3495   1.046       .  S
N3492      H3496   1.046       .  S
C3501      C3502   1.420       .  A
C3501      C3506   1.405       .  A
C3502      C3503   1.405       .  A
C3502      N3507   1.439       .  S
C3503      C3504   1.399       .  A
C3503      H3508   1.084       .  S
C3504      C3509   1.493       .  S
C3504      C3505   1.414       .  A
C3505      C3506   1.415       .  A
C3505      N3510   1.437       .  S
C3506      H3511   1.083       .  S
N3507      H3527   1.046       .  S
N3507      H3528   1.046       .  S
C3509      C3512   1.400       .  A
C3509      C3516   1.413       .  A
N3510      H3525   1.045       .  S
N3510      H3526   1.046       .  S
C3512      C3513   1.407       .  A
C3512      H3517   1.084       .  S
C3513      C3514   1.419       .  A
C3513      N3518   1.438       .  S
C3514      C3515   1.405       .  A
C3515      C3516   1.411       .  A
C3515      H3519   1.083       .  S
C3516      N3520   1.437       .  S
N3518      H3521   1.046       .  S
N3518      H3522   1.044       .  S
N3520      H3523   1.046       .  S
N3520      H3524   1.046       .  S
C3529      C3530   1.421       .  A
C3529      C3534   1.408       .  A
C3530      C3531   1.402       .  A
C3530      N3535   1.439       .  S
C3531      C3532   1.399       .  A
C3531      H3536   1.084       .  S
C3532      C3537   1.486       .  S
C3532      C3533   1.410       .  A
C3533      C3534   1.411       .  A
C3533      N3538   1.437       .  S
C3534      H3539   1.083       .  S
N3535      H3555   1.046       .  S
N3535      H3556   1.046       .  S
C3537      C3540   1.402       .  A
C3537      C3544   1.410       .  A
N3538      H3553   1.046       .  S
N3538      H3554   1.045       .  S
C3540      C3541   1.407       .  A
C3540      H3545   1.084       .  S
C3541      C3542   1.415       .  A
C3541      N3546   1.431       .  S
C3542      C3543   1.405       .  A
C3543      C3544   1.404       .  A
C3543      H3547   1.083       .  S
C3544      N3548   1.438       .  S
N3546      H3549   1.046       .  S
N3546      H3550   1.045       .  S
N3548      H3551   1.046       .  S
N3548      H3552   1.046       .  S
C3557      C3558   1.422       .  A
C3557      C3562   1.412       .  A
C3558      C3559   1.409       .  A
C3558      N3563   1.434       .  S
C3559      C3560   1.401       .  A
C3559      H3564   1.084       .  S
C3560      C3565   1.491       .  S
C3560      C3561   1.407       .  A
C3561      C3562   1.408       .  A
C3561      N3566   1.438       .  S
C3562      H3567   1.075       .  S
N3563      H3583   1.046       .  S
N3563      H3584   1.045       .  S
C3565      C3568   1.401       .  A
C3565      C3572   1.413       .  A
N3566      H3581   1.046       .  S
N3566      H3582   1.045       .  S
C3568      C3569   1.406       .  A
C3568      H3573   1.084       .  S
C3569      C3570   1.415       .  A
C3569      N3574   1.439       .  S
C3570      C3571   1.405       .  A
C3571      C3572   1.414       .  A
C3571      H3575   1.084       .  S
C3572      N3576   1.437       .  S
N3574      H3577   1.046       .  S
N3574      H3578   1.046       .  S
N3576      H3579   1.046       .  S
N3576      H3580   1.045       .  S
