geometry optimzed in LAMMPS
_audit_creation_date              2020-11-30 
_audit_creation_method            'lammps2cif' 
_symmetry_space_group_name_H-M    'P1' 
_symmetry_Int_Tables_number       1 
_symmetry_cell_setting            triclinic 
loop_ 
_symmetry_equiv_pos_as_xyz 
  x,y,z 
_cell_length_a                    39.28731344350599 
_cell_length_b                    38.96878632641382 
_cell_length_c                    39.15358500476917 
_cell_angle_alpha                 89.45784453809918 
_cell_angle_beta                  90.201742565627 
_cell_angle_gamma                 90.49357206680881 
loop_ 
_atom_site_label 
_atom_site_type_symbol 
_atom_site_fract_x 
_atom_site_fract_y 
_atom_site_fract_z 
_atom_site_charge 
C1          C  0.11919973  0.11634190  0.11305444    -0.01930
C2          C  0.92602563  0.11659009  0.93311516    -0.01930
C3          C  0.92630784  0.93712008  0.11251874    -0.01930
C4          C  0.12393764  0.93164617  0.93668370    -0.01930
C5          C  0.02572043  0.02507941  0.02106470    -0.01930
N6          N  0.76443217  0.86094508  0.53334542    -0.26730
N7          N  0.79691715  0.86639331  0.54004629    -0.34590
C8          C  0.80379525  0.89996046  0.53999494     0.01610
C9          C  0.77420524  0.91716089  0.53305768     0.07640
C10         C  0.74934356  0.89178006  0.52908018    -0.05460
H11         H  0.82894808  0.91094631  0.54361044     0.08300
H12         H  0.72282938  0.89540956  0.52256767     0.09500
Cu13       Cu  0.83215072  0.82912637  0.54382380     0.44170
Cu14       Cu  0.74688697  0.81021718  0.52938468     0.41990
Cu15       Cu  0.81772264  0.74342796  0.52572606     0.43880
N16         N  0.87087948  0.79689633  0.53421310    -0.34110
N17         N  0.86682246  0.76416254  0.52697374    -0.28370
C18         C  0.89781592  0.75069233  0.52122010    -0.04470
C19         C  0.92184825  0.77686405  0.52466364     0.07750
C20         C  0.90376961  0.80560880  0.53282371     0.01540
H21         H  0.90246373  0.72417860  0.51489113     0.09190
H22         H  0.91372715  0.83111213  0.53760912     0.08270
N23         N  0.76560798  0.73355477  0.53112721    -0.35560
N24         N  0.74098076  0.75665789  0.53226074    -0.27740
C25         C  0.71158388  0.74047942  0.54017906    -0.02980
C26         C  0.71779883  0.70580266  0.54413590     0.05630
C27         C  0.75228905  0.70238693  0.53837988     0.03720
H28         H  0.68793250  0.75338967  0.54547189     0.08830
H29         H  0.76710166  0.67935445  0.54189152     0.07660
N30         N  0.52283765  0.86152278  0.76411439    -0.26730
N31         N  0.53377437  0.86597934  0.79563267    -0.34590
C32         C  0.53345748  0.89923662  0.80347535     0.01610
C33         C  0.52224731  0.91719342  0.77535772     0.07640
C34         C  0.51585126  0.89267213  0.75046604    -0.05460
H35         H  0.54083292  0.90951304  0.82802432     0.08300
H36         H  0.50639142  0.89707411  0.72483534     0.09500
Cu37       Cu  0.54594369  0.82724811  0.82799886     0.44170
Cu38       Cu  0.51841167  0.81160742  0.74537667     0.41990
Cu39       Cu  0.53041871  0.74088308  0.81258590     0.43880
N40         N  0.54178404  0.79270635  0.86658211    -0.34110
N41         N  0.53469971  0.75987610  0.86246853    -0.28370
C42         C  0.52982255  0.74561454  0.89374652    -0.04470
C43         C  0.53372382  0.77136246  0.91797551     0.07750
C44         C  0.54130462  0.80061347  0.89966230     0.01540
H45         H  0.52287442  0.71905348  0.89842093     0.09190
H46         H  0.54506938  0.82623872  0.90951398     0.08270
N47         N  0.53018999  0.73470714  0.75920480    -0.35560
N48         N  0.52463830  0.75918055  0.73607944    -0.27740
C49         C  0.52930060  0.74617109  0.70474396    -0.02980
C50         C  0.53908765  0.71219782  0.70789557     0.05630
C51         C  0.53903485  0.70583977  0.74283117     0.03720
H52         H  0.52800272  0.76117779  0.68140114     0.08830
H53         H  0.54730765  0.68258095  0.75555254     0.07660
N54         N  0.51930000  0.86230131  0.28196563    -0.26730
N55         N  0.51398687  0.86718774  0.24905054    -0.34590
C56         C  0.51373114  0.90061306  0.24147332     0.01610
C57         C  0.51884716  0.91846230  0.27108471     0.07640
C58         C  0.52224610  0.89351628  0.29667356    -0.05460
H59         H  0.51019094  0.91108053  0.21602203     0.08300
H60         H  0.52681534  0.89774334  0.32357522     0.09500
Cu61       Cu  0.50835314  0.82916606  0.21506699     0.44170
Cu62       Cu  0.52123890  0.81139928  0.30039309     0.41990
Cu63       Cu  0.50365842  0.74265019  0.23173671     0.43880
N64         N  0.50949876  0.79484664  0.17706658    -0.34110
N65         N  0.50821159  0.76135211  0.18167732    -0.28370
C66         C  0.51125658  0.74638924  0.15080700    -0.04470
C67         C  0.51468205  0.77239866  0.12634489     0.07750
C68         C  0.51339557  0.80252766  0.14408141     0.01540
H69         H  0.51126927  0.71899596  0.14654000     0.09190
H70         H  0.51550229  0.82837440  0.13387675     0.08270
N71         N  0.50265813  0.73588488  0.28496351    -0.35560
N72         N  0.51239016  0.75842507  0.30829979    -0.27740
C73         C  0.50932080  0.74365064  0.33937000    -0.02980
C74         C  0.49512628  0.71093314  0.33610255     0.05630
C75         C  0.49158840  0.70719147  0.30096937     0.03720
H76         H  0.51576037  0.75672866  0.36272828     0.08830
H77         H  0.47996654  0.68578830  0.28780446     0.07660
N78         N  0.86624697  0.51294943  0.28305682    -0.26730
N79         N  0.87053247  0.51428853  0.24975215    -0.34590
C80         C  0.90356079  0.51543214  0.24217511     0.01610
C81         C  0.92167378  0.51489055  0.27220917     0.07640
C82         C  0.89734916  0.51335456  0.29803391    -0.05460
H83         H  0.91358183  0.51679188  0.21647434     0.08300
H84         H  0.90189305  0.51255291  0.32529399     0.09500
Cu85       Cu  0.83193987  0.51425348  0.21579222     0.44170
Cu86       Cu  0.81626875  0.50966496  0.30111216     0.41990
Cu87       Cu  0.74683779  0.49713061  0.23132898     0.43880
N88         N  0.79750371  0.51236734  0.17766179    -0.34110
N89         N  0.76480730  0.50584595  0.18172010    -0.28370
C90         C  0.74994102  0.50591524  0.15048633    -0.04470
C91         C  0.77519848  0.51260044  0.12636191     0.07750
C92         C  0.80475677  0.51650819  0.14467558     0.01540
H93         H  0.72321718  0.50094574  0.14568367     0.09190
H94         H  0.83001396  0.52167147  0.13478955     0.08270
N95         N  0.74073352  0.49353189  0.28447400    -0.35560
N96         N  0.76406350  0.50044153  0.30810258    -0.27740
C97         C  0.74973905  0.49704819  0.33906329    -0.02980
C98         C  0.71619644  0.48626975  0.33530720     0.05630
C99         C  0.71150666  0.48448131  0.30020845     0.03720
H100        H  0.76324891  0.50158884  0.36271357     0.08830
H101        H  0.68868000  0.47639145  0.28690863     0.07660
O102        O  0.52890318  0.79874962  0.97126926    -0.72380
O103        O  0.52106448  0.79909614  0.07260858    -0.73360
O104        O  0.57602404  0.79887911  0.02609710    -0.61980
O105        O  0.47379686  0.80112384  0.01853584    -0.70390
O106        O  0.47300281  0.74411563  0.01870712    -0.69950
O107        O  0.57389680  0.74189383  0.02631184    -0.61200
O108        O  0.51939877  0.74210477  0.07386402    -0.73710
O109        O  0.52708714  0.74177100  0.97124027    -0.72490
Cu110      Cu  0.52500698  0.80146992  0.02207364     1.04560
Cu111      Cu  0.52329427  0.74046568  0.02256505     1.04330
C112        C  0.52952422  0.77032776  0.95520712     0.93820
C113        C  0.51867062  0.77080809  0.08923374     0.92950
C114        C  0.59095756  0.76995550  0.02721476     0.85100
C115        C  0.45739699  0.77275563  0.01775527     0.91370
O116        O  0.74526609  0.51487565  0.07315580    -0.72380
O117        O  0.74547913  0.52089375  0.97026691    -0.73360
O118        O  0.74585836  0.46719141  0.01896601    -0.61980
O119        O  0.74696326  0.56926085  0.02417451    -0.70390
O120        O  0.80349124  0.57012711  0.02478571    -0.69950
O121        O  0.80240717  0.46695457  0.02010270    -0.61200
O122        O  0.80201326  0.52153273  0.97136799    -0.73710
O123        O  0.80180665  0.51575778  0.07278812    -0.72490
Cu124      Cu  0.74387832  0.51808621  0.02167147     1.04560
Cu125      Cu  0.80439937  0.51855136  0.02225461     1.04330
C126        C  0.77368110  0.51438883  0.08903304     0.93820
C127        C  0.77395095  0.52218705  0.95473240     0.92950
C128        C  0.77397137  0.45096981  0.01863280     0.85100
C129        C  0.77518742  0.58586863  0.02525815     0.91370
N130        N  0.68353115  0.77910395  0.03278410    -0.26730
N131        N  0.67919409  0.74603088  0.02767655    -0.34590
C132        C  0.64613930  0.73830542  0.02530966     0.01610
C133        C  0.62814403  0.76807927  0.02887419     0.07640
C134        C  0.65250719  0.79383554  0.03353141    -0.05460
H135        H  0.63603232  0.71274373  0.02114584     0.08300
H136        H  0.64802391  0.82088670  0.03732480     0.09500
Cu137      Cu  0.71805655  0.71290853  0.02484702     0.44170
Cu138      Cu  0.73346466  0.79729751  0.03838010     0.41990
Cu139      Cu  0.80463866  0.72935707  0.03955879     0.43880
N140        N  0.75255807  0.67509838  0.02638284    -0.34110
N141        N  0.78542551  0.67924968  0.03207217    -0.28370
C142        C  0.79980182  0.64776401  0.03229370    -0.04470
C143        C  0.77410738  0.62346291  0.02667874     0.07750
C144        C  0.74479255  0.64193383  0.02309794     0.01540
H145        H  0.82653591  0.64288133  0.03668081     0.09190
H146        H  0.71932794  0.63203850  0.01872906     0.08270
N147        N  0.81092191  0.78310133  0.04403325    -0.35560
N148        N  0.78605024  0.80601767  0.04291172    -0.27740
C149        C  0.79950172  0.83747613  0.04734790    -0.02980
C150        C  0.83431000  0.83478726  0.05152113     0.05630
C151        C  0.84070127  0.79991698  0.04953551     0.03720
H152        H  0.78469994  0.86065263  0.04929420     0.08830
H153        H  0.86496962  0.78754963  0.05337723     0.07660
N154        N  0.86551976  0.53569572  0.76256799    -0.26730
N155        N  0.86955079  0.54054627  0.79558443    -0.34590
C156        C  0.90248929  0.53946321  0.80388044     0.01610
C157        C  0.92061496  0.53379710  0.77460766     0.07640
C158        C  0.89656303  0.53164514  0.74853117    -0.05460
H159        H  0.91235553  0.54175783  0.82960712     0.08300
H160        H  0.90118089  0.52662045  0.72182599     0.09500
Cu161      Cu  0.83068679  0.54376853  0.82889364     0.44170
Cu162      Cu  0.81624527  0.53305757  0.74282715     0.41990
Cu163      Cu  0.74788659  0.51741622  0.81116616     0.43880
N164        N  0.79687447  0.53413816  0.86650034    -0.34110
N165        N  0.76529358  0.52357660  0.86155489    -0.28370
C166        C  0.75091076  0.51814725  0.89252965    -0.04470
C167        C  0.77538928  0.52524271  0.91741477     0.07750
C168        C  0.80397613  0.53518774  0.89980660     0.01540
H169        H  0.72516175  0.50895142  0.89661367     0.09190
H170        H  0.82853466  0.54225040  0.91036780     0.08270
N171        N  0.74010878  0.52364400  0.75827785    -0.35560
N172        N  0.76357630  0.53187412  0.73525827    -0.27740
C173        C  0.74795005  0.54230551  0.70637651    -0.02980
C174        C  0.71300470  0.54034544  0.71089550     0.05630
C175        C  0.70921165  0.52742560  0.74388590     0.03720
H176        H  0.76116866  0.55321248  0.68458297     0.08830
H177        H  0.68559090  0.52375081  0.75761090     0.07660
N178        N  0.28641869  0.86292353  0.51236160    -0.26730
N179        N  0.25410626  0.86670061  0.50415468    -0.34590
C180        C  0.24584195  0.89979459  0.50414598     0.01610
C181        C  0.27434755  0.91847470  0.51249746     0.07640
C182        C  0.30004802  0.89448472  0.51742617    -0.05460
H183        H  0.22049376  0.90939969  0.49933862     0.08300
H184        H  0.32607417  0.89948871  0.52515222     0.09500
Cu185      Cu  0.22050640  0.82780483  0.49858957     0.44170
Cu186      Cu  0.30524525  0.81304259  0.51783679     0.41990
Cu187      Cu  0.23374389  0.74625405  0.52984966     0.43880
N188        N  0.18118928  0.79578373  0.50867185    -0.34110
N189        N  0.18469413  0.76451051  0.52116487    -0.28370
C190        C  0.15333700  0.75112238  0.52666446    -0.04470
C191        C  0.12967289  0.77599983  0.51764253     0.07750
C192        C  0.14831820  0.80379900  0.50647737     0.01540
H193        H  0.14820567  0.72582847  0.53717312     0.09190
H194        H  0.13879577  0.82836444  0.49779151     0.08270
N195        N  0.28586563  0.73673560  0.52614470    -0.35560
N196        N  0.31050637  0.75945910  0.51998086    -0.27740
C197        C  0.33909523  0.74235224  0.51224482    -0.02980
C198        C  0.33235675  0.70736387  0.51364980     0.05630
C199        C  0.29851559  0.70498257  0.52322440     0.03720
H200        H  0.36245414  0.75455825  0.50370612     0.08830
H201        H  0.28330966  0.68179343  0.52551069     0.07660
O202        O  0.97549446  0.80422867  0.52189665    -0.72380
O203        O  0.07668179  0.80369915  0.51822575    -0.73360
O204        O  0.02431895  0.80449719  0.46868696    -0.61980
O205        O  0.02798213  0.80536323  0.57134620    -0.70390
O206        O  0.02488283  0.74839994  0.57177870    -0.69950
O207        O  0.02599960  0.74753134  0.47031680    -0.61200
O208        O  0.07647365  0.74675104  0.52182541    -0.73710
O209        O  0.97431928  0.74723559  0.52061692    -0.72490
Cu210      Cu  0.02613712  0.80648330  0.51998764     1.04560
Cu211      Cu  0.02538234  0.74547507  0.52114179     1.04330
C212        C  0.95892379  0.77586108  0.52194054     0.93820
C213        C  0.09255858  0.77523150  0.51960581     0.92950
C214        C  0.02530244  0.77574912  0.45343593     0.85100
C215        C  0.02640078  0.77688807  0.58761766     0.91370
O216        O  0.97409290  0.52911314  0.80162112    -0.72380
O217        O  0.07493630  0.52150425  0.80104498    -0.73360
O218        O  0.02867190  0.57688658  0.80180914    -0.61980
O219        O  0.02057869  0.47357465  0.80274532    -0.70390
O220        O  0.02059122  0.47439616  0.74601798    -0.69950
O221        O  0.02681003  0.57631004  0.74510385    -0.61200
O222        O  0.07494268  0.52263978  0.74429694    -0.73710
O223        O  0.97293299  0.52823730  0.74489348    -0.72490
Cu224      Cu  0.02462069  0.52525101  0.80382493     1.04560
Cu225      Cu  0.02386676  0.52537382  0.74309656     1.04330
C226        C  0.95758251  0.53005638  0.77344075     0.93820
C227        C  0.09088463  0.52090773  0.77268131     0.92950
C228        C  0.02837938  0.59275823  0.77315373     0.85100
C229        C  0.01933569  0.45783235  0.77432994     0.91370
N230        N  0.03334004  0.68609198  0.78173235    -0.26730
N231        N  0.02408683  0.68206688  0.74965035    -0.34590
C232        C  0.02122598  0.64880267  0.74241426     0.01610
C233        C  0.02871286  0.63032494  0.77144344     0.07640
C234        C  0.03618689  0.65462255  0.79631273    -0.05460
H235        H  0.01446980  0.63885796  0.71755542     0.08300
H236        H  0.04382574  0.64979980  0.82247435     0.09500
Cu237      Cu  0.01837147  0.72103986  0.71591926     0.44170
Cu238      Cu  0.04272413  0.73600094  0.79884462     0.41990
Cu239      Cu  0.04061280  0.80628054  0.72880097     0.43880
N240        N  0.02179303  0.75492844  0.67681762    -0.34110
N241        N  0.03053842  0.78745162  0.68007250    -0.28370
C242        C  0.03299948  0.80153996  0.64849661    -0.04470
C243        C  0.02571080  0.77597744  0.62493467     0.07750
C244        C  0.01875201  0.74700479  0.64389755     0.01540
H245        H  0.04059854  0.82779349  0.64310426     0.09190
H246        H  0.01278994  0.72159867  0.63451575     0.08270
N247        N  0.05047190  0.81316695  0.78081745    -0.35560
N248        N  0.05136259  0.78882361  0.80481763    -0.27740
C249        C  0.06053179  0.80321828  0.83457139    -0.02980
C250        C  0.06549654  0.83797587  0.82924126     0.05630
C251        C  0.05895951  0.84346530  0.79498936     0.03720
H252        H  0.06441387  0.78918959  0.85822085     0.08830
H253        H  0.06147379  0.86747246  0.78107051     0.07660
N254        N  0.18293155  0.51639772  0.76154264    -0.26730
N255        N  0.17911233  0.51026868  0.79443890    -0.34590
C256        C  0.14625864  0.51101544  0.80276792     0.01610
C257        C  0.12790795  0.51767872  0.77361610     0.07640
C258        C  0.15177061  0.52089019  0.74756908    -0.05460
H259        H  0.13655605  0.50728779  0.82839030     0.08300
H260        H  0.14692748  0.52656651  0.72090438     0.09500
Cu261      Cu  0.21811348  0.50351956  0.82730360     0.44170
Cu262      Cu  0.23218622  0.51836849  0.74196163     0.41990
Cu263      Cu  0.30370211  0.51381492  0.80982994     0.43880
N264        N  0.25285822  0.50663647  0.86512974    -0.34110
N265        N  0.28575132  0.51143109  0.86042923    -0.28370
C266        C  0.30056677  0.51477092  0.89155111    -0.04470
C267        C  0.27509147  0.51208513  0.91624058     0.07750
C268        C  0.24545641  0.50697242  0.89831762     0.01540
H269        H  0.32740182  0.51958274  0.89584872     0.09190
H270        H  0.21997643  0.50450905  0.90855273     0.08270
N271        N  0.30912631  0.51176706  0.75623256    -0.35560
N272        N  0.28437415  0.51377677  0.73307940    -0.27740
C273        C  0.29742485  0.50770088  0.70200262    -0.02980
C274        C  0.33185762  0.50175938  0.70535513     0.05630
C275        C  0.33833324  0.50424239  0.74004758     0.03720
H276        H  0.28237020  0.50484230  0.67900267     0.08830
H277        H  0.36201305  0.49826341  0.75287287     0.07660
N278        N  0.86075885  0.28428744  0.51221963    -0.26730
N279        N  0.86463044  0.25126270  0.50658376    -0.34590
C280        C  0.89747648  0.24299362  0.50786433     0.01610
C281        C  0.91592824  0.27222123  0.51437417     0.07640
C282        C  0.89203635  0.29833002  0.51690937    -0.05460
H283        H  0.90709221  0.21726917  0.50479828     0.08300
H284        H  0.89695250  0.32506141  0.52250149     0.09500
Cu285      Cu  0.82619081  0.21729004  0.50077538     0.44170
Cu286      Cu  0.81116992  0.30392830  0.51441095     0.41990
Cu287      Cu  0.74317680  0.23238991  0.52119874     0.43880
N288        N  0.79278448  0.17821975  0.50668332    -0.34110
N289        N  0.76070500  0.18230017  0.51523335    -0.28370
C290        C  0.74641505  0.15086084  0.51952910    -0.04470
C291        C  0.77147086  0.12654651  0.51371024     0.07750
C292        C  0.80032474  0.14495956  0.50570728     0.01540
H293        H  0.72040419  0.14610483  0.52739043     0.09190
H294        H  0.82538197  0.13501055  0.50046273     0.08270
N295        N  0.73489429  0.28540958  0.51830801    -0.35560
N296        N  0.75795520  0.31028622  0.51453472    -0.27740
C297        C  0.74157527  0.33998950  0.50802624    -0.02980
C298        C  0.70678943  0.33362632  0.50766901     0.05630
C299        C  0.70370627  0.29888572  0.51479318     0.03720
H300        H  0.75414028  0.36402561  0.50164348     0.08830
H301        H  0.68039612  0.28386168  0.51496303     0.07660
O302        O  0.80008530  0.97175648  0.52870948    -0.72380
O303        O  0.79882797  0.07331156  0.51874170    -0.73360
O304        O  0.79904579  0.02718903  0.57488272    -0.61980
O305        O  0.80160901  0.01832364  0.47247170    -0.70390
O306        O  0.74506648  0.01760419  0.47181178    -0.69950
O307        O  0.74256355  0.02466239  0.57270212    -0.61200
O308        O  0.74227750  0.07274260  0.51850013    -0.73710
O309        O  0.74361837  0.96950659  0.52625707    -0.72490
Cu310      Cu  0.80189112  0.02265934  0.52375021     1.04560
Cu311      Cu  0.74139421  0.02107630  0.52224142     1.04330
C312        C  0.77225518  0.95452427  0.52905341     0.93820
C313        C  0.77051174  0.08913406  0.51726452     0.92950
C314        C  0.77021058  0.02732183  0.58976247     0.85100
C315        C  0.77350280  0.01676864  0.45611771     0.91370
O316        O  0.51734342  0.97020222  0.74517468    -0.72380
O317        O  0.51509161  0.07337074  0.74281828    -0.73360
O318        O  0.56690122  0.02327408  0.74488152    -0.61980
O319        O  0.46570239  0.02011875  0.74545101    -0.70390
O320        O  0.46534584  0.02015083  0.80217085    -0.69950
O321        O  0.56799583  0.02430983  0.80158242    -0.61200
O322        O  0.51472884  0.07340399  0.79954168    -0.73710
O323        O  0.51874889  0.97115694  0.80189075    -0.72490
Cu324      Cu  0.51623855  0.02172917  0.74261060     1.04560
Cu325      Cu  0.51670905  0.02230813  0.80331941     1.04330
C326        C  0.51893564  0.95455895  0.77387882     0.93820
C327        C  0.51411248  0.08954776  0.77094336     0.92950
C328        C  0.58349951  0.02413026  0.77301324     0.85100
C329        C  0.44947369  0.01953486  0.77369980     0.91370
N330        N  0.67632103  0.02481886  0.78253415    -0.26730
N331        N  0.67182134  0.02720363  0.74925293    -0.34590
C332        C  0.63874895  0.02721202  0.74156953     0.01610
C333        C  0.62077961  0.02492397  0.77146979     0.07640
C334        C  0.64524425  0.02344607  0.79734455    -0.05460
H335        H  0.62860597  0.02897576  0.71588715     0.08300
H336        H  0.64079563  0.02157325  0.82455417     0.09500
Cu337      Cu  0.70982522  0.03099220  0.71513038     0.44170
Cu338      Cu  0.72645215  0.02492981  0.80133541     0.41990
Cu339      Cu  0.79498284  0.04187289  0.73231089     0.43880
N340        N  0.74440875  0.03265749  0.67740771    -0.34110
N341        N  0.77739248  0.03645175  0.68228759    -0.28370
C342        C  0.79287248  0.03523132  0.65154234    -0.04470
C343        C  0.76773144  0.03049359  0.62683690     0.07750
C344        C  0.73754879  0.02905597  0.64429513     0.01540
H345        H  0.82004510  0.03744204  0.64751587     0.09190
H346        H  0.71227163  0.02530738  0.63381474     0.08270
N347        N  0.80148266  0.04278465  0.78536774    -0.35560
N348        N  0.77885150  0.03376143  0.80894434    -0.27740
C349        C  0.79358592  0.03652233  0.83989015    -0.02980
C350        C  0.82650364  0.04943169  0.83612767     0.05630
C351        C  0.83036020  0.05285119  0.80102974     0.03720
H352        H  0.78051622  0.03070861  0.86351568     0.08830
H353        H  0.85216792  0.06343821  0.78767264     0.07660
N354        N  0.51087386  0.18286677  0.75893564    -0.26730
N355        N  0.50470079  0.17865641  0.79177641    -0.34590
C356        C  0.50501938  0.14544633  0.80023303     0.01610
C357        C  0.51144456  0.12705296  0.77134191     0.07640
C358        C  0.51492570  0.15140552  0.74519997    -0.05460
H359        H  0.50139833  0.13552973  0.82589287     0.08300
H360        H  0.52068501  0.14666181  0.71867162     0.09500
Cu361      Cu  0.49998219  0.21704340  0.82541427     0.44170
Cu362      Cu  0.51448263  0.23320150  0.73930548     0.41990
Cu363      Cu  0.52458223  0.30044300  0.80987225     0.43880
N364        N  0.50869015  0.24962364  0.86413760    -0.34110
N365        N  0.51868203  0.28170689  0.85977092    -0.28370
C366        C  0.52400991  0.29547738  0.89090063    -0.04470
C367        C  0.51742860  0.27008460  0.91531568     0.07750
C368        C  0.50788439  0.24153842  0.89731528     0.01540
H369        H  0.53280413  0.32145036  0.89538740     0.09190
H370        H  0.50132988  0.21641453  0.90747628     0.08270
N371        N  0.52023033  0.30995321  0.75723937    -0.35560
N372        N  0.51512220  0.28701387  0.73283396    -0.27740
C373        C  0.50718346  0.30388434  0.70364938    -0.02980
C374        C  0.50728366  0.33893007  0.70973766     0.05630
C375        C  0.51626752  0.34159895  0.74387567     0.03720
H376        H  0.49930364  0.29142635  0.68030375     0.08830
H377        H  0.51725692  0.36485308  0.75873863     0.07660
O378        O  0.24817926  0.51640382  0.96971350    -0.72380
O379        O  0.24704344  0.52639744  0.07097157    -0.73360
O380        O  0.24638023  0.57241955  0.01478582    -0.61980
O381        O  0.24693671  0.47015925  0.02557480    -0.70390
O382        O  0.30351506  0.47146215  0.02620019    -0.69950
O383        O  0.30295702  0.57240413  0.01576838    -0.61200
O384        O  0.30356488  0.52658657  0.07227436    -0.73710
O385        O  0.30470138  0.51742356  0.96954896    -0.72490
Cu386      Cu  0.24513504  0.52129296  0.02024741     1.04560
Cu387      Cu  0.30567811  0.52198929  0.02097932     1.04330
C388        C  0.27638709  0.51550552  0.95356189     0.93820
C389        C  0.27503441  0.52810831  0.08766301     0.92950
C390        C  0.27479381  0.58837307  0.01343430     0.85100
C391        C  0.27541329  0.45483753  0.02765972     0.91370
N392        N  0.26451440  0.68067554  0.00430841    -0.26730
N393        N  0.29775711  0.67698884  0.00406467    -0.34590
C394        C  0.30580914  0.64399970  0.00687500     0.01610
C395        C  0.27609895  0.62546395  0.00900579     0.07640
C396        C  0.24999800  0.64928092  0.00725726    -0.05460
H397        H  0.33155975  0.63441344  0.00814604     0.08300
H398        H  0.22290743  0.64430295  0.00886033     0.09500
Cu399      Cu  0.33102731  0.71619279  0.00365815     0.44170
Cu400      Cu  0.24567998  0.73014888  0.00322080     0.41990
Cu401      Cu  0.31455091  0.79894600  0.02518187     0.43880
N402        N  0.36905988  0.75004149  0.01018167    -0.34110
N403        N  0.36479169  0.78225396  0.01887810    -0.28370
C404        C  0.39599288  0.79691986  0.02219265    -0.04470
C405        C  0.42020571  0.77187810  0.01550748     0.07750
C406        C  0.40200917  0.74274195  0.00811097     0.01540
H407        H  0.40069702  0.82317763  0.02974742     0.09190
H408        H  0.41191207  0.71765395  0.00223552     0.08270
N409        N  0.26170377  0.80549849  0.01942686    -0.35560
N410        N  0.23928120  0.78277926  0.00781235    -0.27740
C411        C  0.21029608  0.79903474  0.99974048    -0.02980
C412        C  0.21377519  0.83357087  0.00731700     0.05630
C413        C  0.24657978  0.83623212  0.02066636     0.03720
H414        H  0.18882197  0.78662321  0.98751692     0.08830
H415        H  0.25946124  0.85898854  0.02969531     0.07660
O416        O  0.07726406  0.52674809  0.30184909    -0.72380
O417        O  0.97462368  0.51883615  0.30235869    -0.73360
O418        O  0.02932530  0.47208149  0.30168081    -0.61980
O419        O  0.02245663  0.57358437  0.30099328    -0.70390
O420        O  0.01944300  0.57426829  0.24430773    -0.69950
O421        O  0.03114891  0.47171767  0.24497504    -0.61200
O422        O  0.97524053  0.51721786  0.24567515    -0.73710
O423        O  0.07581813  0.52912258  0.24517240    -0.72490
Cu424      Cu  0.02595233  0.52278133  0.30373593     1.04560
Cu425      Cu  0.02543661  0.52304135  0.24304111     1.04330
C426        C  0.09254769  0.52956121  0.27322240     0.93820
C427        C  0.95891493  0.51686121  0.27383816     0.92950
C428        C  0.03142851  0.45582439  0.27361355     0.85100
C429        C  0.01942712  0.58996287  0.27274434     0.91370
N430        N  0.00458745  0.68209362  0.26496569    -0.26730
N431        N  0.02070449  0.67923604  0.29442855    -0.34590
C432        C  0.02825496  0.64653143  0.30086566     0.01610
C433        C  0.01695338  0.62731447  0.27392473     0.07640
C434        C  0.00210431  0.65047311  0.25117205    -0.05460
H435        H  0.04074618  0.63742673  0.32386130     0.08300
H436        H  0.98962555  0.64467306  0.22721934     0.09500
Cu437      Cu  0.03002234  0.71824438  0.32664060     0.44170
Cu438      Cu  0.98732685  0.73044082  0.24924921     0.41990
Cu439      Cu  0.01174591  0.80251576  0.31110341     0.43880
N440        N  0.02940535  0.75239658  0.36493747    -0.34110
N441        N  0.02197004  0.78502472  0.36058817    -0.28370
C442        C  0.01998839  0.79962552  0.39168531    -0.04470
C443        C  0.02625500  0.77426004  0.41612917     0.07750
C444        C  0.03213664  0.74486823  0.39812519     0.01540
H445        H  0.01315747  0.82603084  0.39618806     0.09190
H446        H  0.03683583  0.71943960  0.40835155     0.08270
N447        N  0.99624272  0.80786030  0.26018480    -0.35560
N448        N  0.98330186  0.78346313  0.24063106    -0.27740
C449        C  0.97154772  0.79799045  0.21168123    -0.02980
C450        C  0.97886824  0.83311186  0.21167022     0.05630
C451        C  0.99488966  0.83788942  0.24311957     0.03720
H452        H  0.95857188  0.78348458  0.19216632     0.08830
H453        H  0.00568296  0.86119709  0.25326860     0.07660
N454        N  0.28471142  0.53407261  0.18055018    -0.26730
N455        N  0.25200466  0.53985811  0.17588245    -0.34590
C456        C  0.24427915  0.53879973  0.14265845     0.01610
C457        C  0.27355236  0.53224411  0.12487883     0.07640
C458        C  0.29904859  0.52946796  0.14957082    -0.05460
H459        H  0.21890940  0.54195245  0.13231230     0.08300
H460        H  0.32559964  0.52372744  0.14539500     0.09500
Cu461      Cu  0.21811353  0.54564457  0.21421228     0.44170
Cu462      Cu  0.30398738  0.53174854  0.23060797     0.41990
Cu463      Cu  0.23550410  0.52991516  0.30002805     0.43880
N464        N  0.18043032  0.54061851  0.24909075    -0.34110
N465        N  0.18538517  0.53383126  0.28176851    -0.28370
C466        C  0.15457724  0.52951286  0.29665696    -0.04470
C467        C  0.12969644  0.53357184  0.27151113     0.07750
C468        C  0.14719493  0.54056877  0.24191908     0.01540
H469        H  0.15062539  0.52296118  0.32326661     0.09190
H470        H  0.13662922  0.54441009  0.21662360     0.08270
N471        N  0.28850368  0.53185424  0.30772831    -0.35560
N472        N  0.31230288  0.53302721  0.28371452    -0.27740
C473        C  0.34268135  0.53919946  0.29871378    -0.02980
C474        C  0.33810425  0.54159266  0.33367795     0.05630
C475        C  0.30343631  0.53703002  0.33829085     0.03720
H476        H  0.36596217  0.54462230  0.28490500     0.08830
H477        H  0.28964167  0.54060702  0.36184546     0.07660
O478        O  0.52250928  0.29976014  0.96786115    -0.72380
O479        O  0.52955817  0.30092274  0.07009092    -0.73360
O480        O  0.57653327  0.29800924  0.01533023    -0.61980
O481        O  0.47516937  0.30009930  0.02261900    -0.70390
O482        O  0.47316449  0.24311347  0.02294694    -0.69950
O483        O  0.57535829  0.24102343  0.01713068    -0.61200
O484        O  0.52734482  0.24393571  0.07085440    -0.73710
O485        O  0.52093914  0.24275221  0.96922745    -0.72490
Cu486      Cu  0.52599999  0.30170007  0.01893982     1.04560
Cu487      Cu  0.52417823  0.24068900  0.02009978     1.04330
C488        C  0.52060669  0.27110484  0.95251894     0.93820
C489        C  0.52936360  0.27254278  0.08652274     0.92950
C490        C  0.59193622  0.26923162  0.01489526     0.85100
C491        C  0.45816673  0.27196484  0.02397105     0.91370
N492        N  0.68414366  0.25688178  0.01085985    -0.26730
N493        N  0.68063251  0.28946920  0.00231945    -0.34590
C494        C  0.64781711  0.29800981  0.00230369     0.01610
C495        C  0.62905074  0.26942440  0.01099576     0.07640
C496        C  0.65271071  0.24340239  0.01613179    -0.05460
H497        H  0.63845435  0.32361112  0.99730963     0.08300
H498        H  0.64755497  0.21724419  0.02421206     0.09500
Cu499      Cu  0.71954811  0.32315017  0.99638929     0.44170
Cu500      Cu  0.73345640  0.23715321  0.01670722     0.41990
Cu501      Cu  0.80011191  0.30800261  0.02850169     0.43880
N502        N  0.75225546  0.36208756  0.00634641    -0.34110
N503        N  0.78300434  0.35783124  0.01915883    -0.28370
C504        C  0.79681004  0.38914221  0.02488747    -0.04470
C505        C  0.77278707  0.41360139  0.01568631     0.07750
C506        C  0.74502394  0.39543553  0.00417685     0.01540
H507        H  0.82169750  0.39370490  0.03594966     0.09190
H508        H  0.72091581  0.40560957  0.99553084     0.08270
N509        N  0.80927882  0.25527700  0.02583253    -0.35560
N510        N  0.78657265  0.23065422  0.01971515    -0.27740
C511        C  0.80340090  0.20160612  0.01236776    -0.02980
C512        C  0.83819062  0.20805651  0.01391383     0.05630
C513        C  0.84069756  0.24219411  0.02324693     0.03720
H514        H  0.79120984  0.17823046  0.00370850     0.08830
H515        H  0.86380909  0.25739224  0.02508818     0.07660
O516        O  0.52154641  0.97299214  0.24444057    -0.72380
O517        O  0.52688123  0.07519310  0.24551451    -0.73360
O518        O  0.57533945  0.02188843  0.24385207    -0.61980
O519        O  0.47311782  0.02641987  0.24342864    -0.70390
O520        O  0.47351634  0.02608776  0.30015762    -0.69950
O521        O  0.57486065  0.02051855  0.30057821    -0.61200
O522        O  0.52740581  0.07493312  0.30222806    -0.73710
O523        O  0.52142893  0.97150626  0.30115422    -0.72490
Cu524      Cu  0.52422211  0.02415249  0.24232749     1.04560
Cu525      Cu  0.52427329  0.02319754  0.30304028     1.04330
C526        C  0.52076011  0.95605684  0.27257702     0.93820
C527        C  0.52803326  0.09126015  0.27385439     0.92950
C528        C  0.59110138  0.02029872  0.27233030     0.85100
C529        C  0.45730788  0.02736532  0.27177162     0.91370
N530        N  0.68354175  0.01660117  0.26190219    -0.26730
N531        N  0.67940273  0.01196084  0.29498854    -0.34590
C532        C  0.64647877  0.01264271  0.30300627     0.01610
C533        C  0.62825754  0.01776115  0.27351095     0.07640
C534        C  0.65237804  0.02011498  0.24752465    -0.05460
H535        H  0.63663166  0.00988040  0.32868252     0.08300
H536        H  0.64767159  0.02449976  0.22060640     0.09500
Cu537      Cu  0.71779624  0.00687036  0.32866874     0.44170
Cu538      Cu  0.73340197  0.01831897  0.24297754     0.41990
Cu539      Cu  0.80292687  0.01871713  0.31350169     0.43880
N540        N  0.75142693  0.00946897  0.36738074    -0.34110
N541        N  0.78434045  0.01463346  0.36341816    -0.28370
C542        C  0.79863285  0.01731985  0.39478492    -0.04470
C543        C  0.77275606  0.01387741  0.41887360     0.07750
C544        C  0.74342938  0.00895132  0.40041058     0.01540
H545        H  0.82534122  0.02234149  0.39963760     0.09190
H546        H  0.71779578  0.00610468  0.41015869     0.08270
N547        N  0.81022535  0.01771761  0.26043316    -0.35560
N548        N  0.78646187  0.01699944  0.23619578    -0.27740
C549        C  0.80163944  0.01137346  0.20597106    -0.02980
C550        C  0.83637893  0.00845124  0.21114027     0.05630
C551        C  0.84078404  0.01280165  0.24593615     0.03720
H552        H  0.78805214  0.00660843  0.18238581     0.08830
H553        H  0.86419160  0.00936387  0.26014737     0.07660
N554        N  0.53465116  0.28487857  0.17887492    -0.26730
N555        N  0.53228890  0.25133930  0.17594612    -0.34590
C556        C  0.53018856  0.24251035  0.14321370     0.01610
C557        C  0.53123024  0.27197036  0.12385362     0.07640
C558        C  0.53405153  0.29876000  0.14709201    -0.05460
H559        H  0.52803870  0.21637445  0.13427803     0.08300
H560        H  0.53562847  0.32594658  0.14134505     0.09500
Cu561      Cu  0.53215093  0.21879035  0.21582902     0.44170
Cu562      Cu  0.53890477  0.30470809  0.22824312     0.41990
Cu563      Cu  0.53925480  0.23565568  0.30115239     0.43880
N564        N  0.53163033  0.18058149  0.25035739    -0.34110
N565        N  0.53416197  0.18481043  0.28358517    -0.28370
C566        C  0.53316271  0.15325875  0.29849200    -0.04470
C567        C  0.52993049  0.12890566  0.27264659     0.07750
C568        C  0.52906314  0.14743159  0.24277363     0.01540
H569        H  0.53489293  0.14838785  0.32568358     0.09190
H570        H  0.52685018  0.13761142  0.21708816     0.08270
N571        N  0.54517857  0.28949464  0.30584829    -0.35560
N572        N  0.54493057  0.31291106  0.28087333    -0.27740
C573        C  0.55175989  0.34396766  0.29426511    -0.02980
C574        C  0.55625759  0.34029015  0.32908002     0.05630
C575        C  0.55219054  0.30549621  0.33548777     0.03720
H576        H  0.55495115  0.36733683  0.27942390     0.08830
H577        H  0.55577389  0.29251427  0.35976153     0.07660
O578        O  0.30259931  0.97257154  0.51813797    -0.72380
O579        O  0.29976586  0.07566946  0.52197836    -0.73360
O580        O  0.29891602  0.02150209  0.57090899    -0.61980
O581        O  0.30123228  0.02676844  0.46947825    -0.70390
O582        O  0.24470129  0.02489230  0.46763894    -0.69950
O583        O  0.24239047  0.01929062  0.56998475    -0.61200
O584        O  0.24324433  0.07316160  0.52135453    -0.73710
O585        O  0.24607989  0.97130677  0.51619842    -0.72490
Cu586      Cu  0.30263838  0.02419347  0.52021718     1.04560
Cu587      Cu  0.24212127  0.02209790  0.51875867     1.04330
C588        C  0.27464077  0.95583905  0.51604504     0.93820
C589        C  0.27097678  0.09052301  0.52244543     0.92950
C590        C  0.27040672  0.01951498  0.58649024     0.85100
C591        C  0.27336415  0.02670720  0.45254778     0.91370
N592        N  0.35659443  0.01793451  0.78278613    -0.26730
N593        N  0.36124185  0.01432522  0.74974948    -0.34590
C594        C  0.39429393  0.01427996  0.74237331     0.01610
C595        C  0.41219508  0.01787469  0.77224235     0.07640
C596        C  0.38764870  0.02008258  0.79782129    -0.05460
H597        H  0.40446841  0.01209029  0.71683658     0.08300
H598        H  0.39202185  0.02340683  0.82488394     0.09500
Cu599      Cu  0.32344973  0.01124956  0.71532482     0.44170
Cu600      Cu  0.30604455  0.01975408  0.80003007     0.41990
Cu601      Cu  0.23739556  0.01588274  0.72820442     0.43880
N602        N  0.29094760  0.01358465  0.67576806    -0.34110
N603        N  0.25767490  0.01557320  0.67887361    -0.28370
C604        C  0.24406774  0.01773931  0.64716428    -0.04470
C605        C  0.27072867  0.01724156  0.62378800     0.07750
C606        C  0.29983892  0.01461297  0.64297113     0.01540
H607        H  0.21717659  0.01994789  0.64158762     0.09190
H608        H  0.32580524  0.01379583  0.63387672     0.08270
N609        N  0.22926384  0.01472700  0.78115095    -0.35560
N610        N  0.25272040  0.01692351  0.80562290    -0.27740
C611        C  0.23733495  0.01242344  0.83600455    -0.02980
C612        C  0.20285952  0.00705350  0.83077524     0.05630
C613        C  0.19875455  0.00837245  0.79568830     0.03720
H614        H  0.25075327  0.00996138  0.86006540     0.08830
H615        H  0.17573031  0.00245374  0.78161223     0.07660
O616        O  0.96888065  0.24452773  0.51995526    -0.72380
O617        O  0.06994124  0.24364060  0.52856987    -0.73360
O618        O  0.01575138  0.24416782  0.57550308    -0.61980
O619        O  0.02351287  0.24158972  0.47296009    -0.70390
O620        O  0.02328161  0.29857188  0.47182247    -0.69950
O621        O  0.01691041  0.30115097  0.57341150    -0.61200
O622        O  0.07124500  0.30062395  0.52622830    -0.73710
O623        O  0.96917841  0.30153360  0.51922175    -0.72490
Cu624      Cu  0.01947607  0.24147235  0.52431059     1.04560
Cu625      Cu  0.02023137  0.30247542  0.52258115     1.04330
C626        C  0.95304090  0.27304677  0.51820877     0.93820
C627        C  0.08652886  0.27198890  0.52897763     0.92950
C628        C  0.01532038  0.27307092  0.59051002     0.85100
C629        C  0.02425523  0.26985136  0.45628473     0.91370
N630        N  0.01421259  0.36433909  0.78442106    -0.26730
N631        N  0.00966591  0.36907181  0.75135649    -0.34590
C632        C  0.01071982  0.40243925  0.74355958     0.01610
C633        C  0.01602472  0.42034154  0.77312627     0.07640
C634        C  0.01806506  0.39553613  0.79894516    -0.05460
H635        H  0.00822566  0.41281883  0.71794598     0.08300
H636        H  0.02253795  0.39980453  0.82585369     0.09500
Cu637      Cu  0.00469864  0.33104155  0.71706381     0.44170
Cu638      Cu  0.01517315  0.31382418  0.80351833     0.41990
Cu639      Cu  0.01548266  0.24488714  0.73364929     0.43880
N640        N  0.00826477  0.29699578  0.67877556    -0.34110
N641        N  0.01290554  0.26385484  0.68351801    -0.28370
C642        C  0.01565910  0.24910830  0.65253809    -0.04470
C643        C  0.01282983  0.27485305  0.62778039     0.07750
C644        C  0.00822134  0.30466781  0.64549058     0.01540
H645        H  0.02000751  0.22209410  0.64837258     0.09190
H646        H  0.00552918  0.33032118  0.63503993     0.08270
N647        N  0.01180928  0.23660710  0.78653916    -0.35560
N648        N  0.01134535  0.26031938  0.81070988    -0.27740
C649        C  0.00380448  0.24487519  0.84072994    -0.02980
C650        C  0.99964056  0.21001385  0.83545069     0.05630
C651        C  0.00469742  0.20581949  0.80084169     0.03720
H652        H  0.99888250  0.25839813  0.86418101     0.08830
H653        H  0.00049987  0.18250180  0.78657184     0.07660
N654        N  0.17868970  0.28287743  0.53553308    -0.26730
N655        N  0.17449931  0.24958700  0.54016871    -0.34590
C656        C  0.14151625  0.24130536  0.53880954     0.01610
C657        C  0.12351022  0.27083913  0.53311838     0.07640
C658        C  0.14769813  0.29708279  0.53127376    -0.05460
H659        H  0.13152731  0.21538022  0.54083799     0.08300
H660        H  0.14320436  0.32402736  0.52631965     0.09500
Cu661      Cu  0.21312089  0.21588108  0.54321715     0.44170
Cu662      Cu  0.22807942  0.30277223  0.53348541     0.41990
Cu663      Cu  0.29592452  0.23466060  0.51777958     0.43880
N664        N  0.24693804  0.17853072  0.53357472    -0.34110
N665        N  0.27851523  0.18404113  0.52352583    -0.28370
C666        C  0.29317248  0.15326222  0.51837137    -0.04470
C667        C  0.26888510  0.12787097  0.52507238     0.07750
C668        C  0.24009098  0.14495509  0.53451694     0.01540
H669        H  0.31902182  0.14966971  0.50975748     0.09190
H670        H  0.21565048  0.13385778  0.54135522     0.08270
N671        N  0.30407148  0.28738573  0.52453793    -0.35560
N672        N  0.28081289  0.31033670  0.53274202    -0.27740
C673        C  0.29673869  0.33915859  0.54305118    -0.02980
C674        C  0.33163517  0.33462942  0.54096684     0.05630
C675        C  0.33510967  0.30169695  0.52828540     0.03720
H676        H  0.28379268  0.36099081  0.55363359     0.08830
H677        H  0.35859055  0.28802670  0.52442813     0.07660
N678        N  0.03906751  0.36305010  0.26469507    -0.26730
N679        N  0.02955007  0.36642479  0.29663698    -0.34590
C680        C  0.02595198  0.39946944  0.30414119     0.01610
C681        C  0.03316566  0.41840252  0.27529110     0.07640
C682        C  0.04135997  0.39466064  0.25034088    -0.05460
H683        H  0.01841484  0.40892476  0.32887445     0.08300
H684        H  0.04860504  0.39993113  0.22416922     0.09500
Cu685      Cu  0.02293169  0.32620835  0.32854948     0.44170
Cu686      Cu  0.04725595  0.31337870  0.24770597     0.41990
Cu687      Cu  0.04033243  0.23940735  0.31407096     0.43880
N688        N  0.02431645  0.29146061  0.36677110    -0.34110
N689        N  0.03113666  0.25858337  0.36351618    -0.28370
C690        C  0.03181668  0.24445601  0.39529371    -0.04470
C691        C  0.02548108  0.27037547  0.41879782     0.07750
C692        C  0.02087958  0.29950347  0.39956992     0.01540
H693        H  0.03726692  0.21781970  0.40092329     0.09190
H694        H  0.01594638  0.32509943  0.40870339     0.08270
N695        N  0.04699662  0.23473790  0.26058459    -0.35560
N696        N  0.04908581  0.26073712  0.23865391    -0.27740
C697        C  0.05297016  0.24851954  0.20712238    -0.02980
C698        C  0.05299092  0.21276839  0.20777745     0.05630
C699        C  0.04986010  0.20533711  0.24280182     0.03720
H700        H  0.05618814  0.26582651  0.18561180     0.08830
H701        H  0.05102802  0.18046732  0.25506012     0.07660
N702        N  0.36493291  0.03279386  0.26020298    -0.26730
N703        N  0.36903339  0.03810286  0.29314202    -0.34590
C704        C  0.40192282  0.03685663  0.30158298     0.01610
C705        C  0.42016698  0.03069183  0.27252725     0.07640
C706        C  0.39608639  0.02835094  0.24636016    -0.05460
H707        H  0.41171310  0.03976677  0.32727451     0.08300
H708        H  0.40079949  0.02316296  0.21970698     0.09500
Cu709      Cu  0.33046699  0.04332391  0.32634095     0.44170
Cu710      Cu  0.31507964  0.03088466  0.24068194     0.41990
Cu711      Cu  0.24672432  0.02044109  0.31004524     0.43880
N712        N  0.29672466  0.03623934  0.36437415    -0.34110
N713        N  0.26473944  0.02690472  0.35978632    -0.28370
C714        C  0.25026898  0.02262160  0.39079478    -0.04470
C715        C  0.27507842  0.02921746  0.41536898     0.07750
C716        C  0.30400878  0.03768126  0.39760985     0.01540
H717        H  0.22420385  0.01451429  0.39510358     0.09190
H718        H  0.32887040  0.04384497  0.40798716     0.08270
N719        N  0.23847168  0.02538562  0.25745433    -0.35560
N720        N  0.26189003  0.03119507  0.23368672    -0.27740
C721        C  0.24600431  0.04033852  0.20448787    -0.02980
C722        C  0.21105762  0.04011205  0.20976229     0.05630
C723        C  0.20743913  0.02982538  0.24354908     0.03720
H724        H  0.25910858  0.04911215  0.18171418     0.08830
H725        H  0.18399069  0.02825861  0.25790262     0.07660
N726        N  0.26570977  0.36206881  0.03175690    -0.26730
N727        N  0.29820605  0.36658116  0.03900560    -0.34590
C728        C  0.30586811  0.39995140  0.03927578     0.01610
C729        C  0.27671873  0.41773819  0.03203851     0.07640
C730        C  0.25136141  0.39315091  0.02752770    -0.05460
H731        H  0.33120559  0.41036174  0.04321839     0.08300
H732        H  0.22510115  0.39743013  0.02040491     0.09500
Cu733      Cu  0.33233803  0.32840959  0.04322329     0.44170
Cu734      Cu  0.24668545  0.31265373  0.02611454     0.41990
Cu735      Cu  0.31542405  0.24361048  0.02450574     0.43880
N736        N  0.37036881  0.29489382  0.03565498    -0.34110
N737        N  0.36551883  0.26230826  0.02822214    -0.28370
C738        C  0.39633100  0.24800529  0.02324044    -0.04470
C739        C  0.42105736  0.27351191  0.02738819     0.07750
C740        C  0.40351512  0.30269057  0.03516777     0.01540
H741        H  0.40038790  0.22152725  0.01638573     0.09190
H742        H  0.41398529  0.32803185  0.03977080     0.08270
N743        N  0.26242964  0.23581655  0.02584967    -0.35560
N744        N  0.23870061  0.25985753  0.02641755    -0.27740
C745        C  0.20827359  0.24495043  0.03246413    -0.02980
C746        C  0.21275163  0.20998117  0.03556971     0.05630
C747        C  0.24733861  0.20516448  0.03141305     0.03720
H748        H  0.18521970  0.25886115  0.03775170     0.08830
H749        H  0.26097821  0.18150372  0.03572860     0.07660
C750        C  0.42904122  0.42892133  0.61445712    -0.01930
C751        C  0.61634489  0.43158492  0.43643266    -0.01930
C752        C  0.61665219  0.61751013  0.61883008    -0.01930
C753        C  0.42320913  0.61579293  0.43674091    -0.01930
C754        C  0.52266916  0.52544775  0.52544900    -0.01930
C755        C  0.44925252  0.59232667  0.45992681    -0.04780
C756        C  0.48153150  0.58014776  0.44858048    -0.01890
C757        C  0.49745457  0.55187367  0.46501382     0.03100
C758        C  0.49662741  0.54801664  0.50156497    -0.04780
C759        C  0.46861653  0.56665818  0.51575806    -0.01880
C760        C  0.44245328  0.58120094  0.49465354     0.03090
C761        C  0.50551732  0.60198672  0.43057610     0.37740
C762        C  0.46729370  0.57608428  0.55126458     0.37730
C763        C  0.40881453  0.58177421  0.50982632     0.36160
C764        C  0.51239275  0.52819467  0.44172695     0.36160
N765        N  0.38251700  0.58128605  0.52307903    -0.38660
N766        N  0.52358669  0.51099436  0.42081587    -0.38660
N767        N  0.46423484  0.58722497  0.57835453    -0.38110
N768        N  0.52614041  0.61884821  0.41739857    -0.38110
C769        C  0.59117069  0.59312626  0.59598836    -0.04780
C770        C  0.58991181  0.55622196  0.59739709    -0.01890
C771        C  0.57270478  0.53592461  0.57205113     0.03100
C772        C  0.54825206  0.54990289  0.54834768    -0.04780
C773        C  0.54830118  0.58685184  0.54816713    -0.01880
C774        C  0.56672814  0.60731813  0.57260511     0.03090
C775        C  0.60151636  0.53722235  0.62733178     0.37740
C776        C  0.53502030  0.60604706  0.51961661     0.37730
C777        C  0.55999365  0.64392228  0.57199892     0.36160
C778        C  0.58148258  0.50001125  0.57246321     0.36160
N779        N  0.55222082  0.67245167  0.56997205    -0.38660
N780        N  0.59228385  0.47270354  0.57624185    -0.38660
N781        N  0.52696580  0.62378574  0.49733653    -0.38110
N782        N  0.60985792  0.52076889  0.65064401    -0.38110
C783        C  0.59224423  0.45663204  0.45921472    -0.04780
C784        C  0.59666985  0.49345585  0.46229603    -0.01890
C785        C  0.57338700  0.51453117  0.48087870     0.03100
C786        C  0.54784642  0.50071235  0.50323575    -0.04780
C787        C  0.54968038  0.46381654  0.50647793    -0.01880
C788        C  0.56820667  0.44279524  0.48322058     0.03090
C789        C  0.62728171  0.51121204  0.45083039     0.37740
C790        C  0.53885951  0.44624798  0.53727985     0.37730
C791        C  0.56256010  0.40599204  0.48632951     0.36160
C792        C  0.57557460  0.55112389  0.47420280     0.36160
N793        N  0.55584417  0.37738149  0.49105798    -0.38660
N794        N  0.57812183  0.57934618  0.46510091    -0.38660
N795        N  0.53279261  0.43192028  0.56251942    -0.38110
N796        N  0.65129989  0.52662151  0.44268378    -0.38110
C797        C  0.45387340  0.45318319  0.59062036    -0.04780
C798        C  0.45572613  0.45234787  0.55381755    -0.01890
C799        C  0.47391666  0.47789102  0.53414803     0.03100
C800        C  0.49692542  0.50226896  0.54915966    -0.04780
C801        C  0.49522607  0.50298944  0.58570559    -0.01880
C802        C  0.47693580  0.47777673  0.60552537     0.03090
C803        C  0.44370565  0.42293686  0.53457191     0.37740
C804        C  0.50678301  0.53262029  0.60440844     0.37730
C805        C  0.48265402  0.47900724  0.64211289     0.36160
C806        C  0.47055728  0.47629046  0.49738481     0.36160
N807        N  0.49023703  0.48238628  0.67047671    -0.38660
N808        N  0.46637041  0.47318165  0.46836225    -0.38660
N809        N  0.51400778  0.55628701  0.62050253    -0.38110
N810        N  0.43514508  0.39995629  0.51796814    -0.38110
C811        C  0.35857374  0.35726113  0.55652838    -0.04780
C812        C  0.38360139  0.34338148  0.57819840    -0.01890
C813        C  0.40647985  0.36484126  0.59661009     0.03100
C814        C  0.40624564  0.40206916  0.59268513    -0.04780
C815        C  0.38008983  0.41504497  0.56998230    -0.01880
C816        C  0.35735603  0.39300639  0.55218960     0.03090
C817        C  0.38402915  0.30637420  0.58432465     0.37740
C818        C  0.37639688  0.45134340  0.56249818     0.37730
C819        C  0.33287810  0.40742007  0.52815530     0.36160
C820        C  0.42534874  0.34629093  0.62271149     0.36160
N821        N  0.31345506  0.41898034  0.50906232    -0.38660
N822        N  0.43796853  0.32876177  0.64308363    -0.38660
N823        N  0.37140774  0.47931626  0.55380745    -0.38110
N824        N  0.38472712  0.27711291  0.58964965    -0.38110
C825        C  0.57042368  0.36633135  0.35301885    -0.04780
C826        C  0.54898290  0.38614416  0.37323889    -0.01890
C827        C  0.56246283  0.40850264  0.39859461     0.03100
C828        C  0.59843811  0.41035979  0.40576099    -0.04780
C829        C  0.61968384  0.39063938  0.38272786    -0.01880
C830        C  0.60562803  0.36994108  0.35665494     0.03090
C831        C  0.51240712  0.38290485  0.36807500     0.37740
C832        C  0.65619995  0.38710315  0.38759028     0.37730
C833        C  0.62768457  0.35064142  0.33417283     0.36160
C834        C  0.53756542  0.42789892  0.41664775     0.36160
N835        N  0.64516247  0.33528978  0.31626577    -0.38660
N836        N  0.51508238  0.44120933  0.42980452    -0.38660
N837        N  0.68505965  0.38214717  0.39073298    -0.38110
N838        N  0.48331564  0.38028324  0.36398444    -0.38110
C839        C  0.36131852  0.55907008  0.35834587    -0.04780
C840        C  0.37874332  0.54051890  0.38374977    -0.01890
C841        C  0.39710243  0.55767983  0.41005043     0.03100
C842        C  0.40006101  0.59449359  0.41047308    -0.04780
C843        C  0.38012936  0.61249077  0.38489644    -0.01880
C844        C  0.36230348  0.59493174  0.35891014     0.03090
C845        C  0.37680443  0.50329179  0.38330924     0.37740
C846        C  0.37440005  0.64916357  0.38573908     0.37730
C847        C  0.34351528  0.61409471  0.33296214     0.36160
C848        C  0.40685335  0.53678795  0.43895791     0.36160
N849        N  0.32858081  0.62934587  0.31239515    -0.38660
N850        N  0.41222074  0.51874165  0.46189950    -0.38660
N851        N  0.36711586  0.67783277  0.38392182    -0.38110
N852        N  0.37529127  0.47362889  0.38288819    -0.38110
C853        C  0.45413215  0.41019496  0.64117751    -0.04780
C854        C  0.45120173  0.41236441  0.67796355    -0.01890
C855        C  0.46679682  0.38792199  0.69958543     0.03100
C856        C  0.49234106  0.36633060  0.68719301    -0.04780
C857        C  0.50186348  0.36966525  0.65266654    -0.01880
C858        C  0.48209112  0.38970308  0.62949119     0.03090
C859        C  0.43599330  0.44093387  0.69576704     0.37740
C860        C  0.53049649  0.35005398  0.64030940     0.37730
C861        C  0.48660333  0.38240351  0.59360478     0.36160
C862        C  0.45502887  0.38440061  0.73464973     0.36160
N863        N  0.49066905  0.37339322  0.56584641    -0.38660
N864        N  0.44528879  0.38171888  0.76242310    -0.38660
N865        N  0.55331832  0.33442889  0.63047111    -0.38110
N866        N  0.42520807  0.46336939  0.71148396    -0.38110
C867        C  0.63301962  0.40355502  0.46203656    -0.04780
C868        C  0.65015394  0.41238119  0.49320726    -0.01890
C869        C  0.67362069  0.38922110  0.50877462     0.03100
C870        C  0.67943068  0.35674262  0.49446128    -0.04780
C871        C  0.65750893  0.34555940  0.46837814    -0.01880
C872        C  0.63144369  0.36699747  0.45633571     0.03090
C873        C  0.64573095  0.44550126  0.50908634     0.37740
C874        C  0.66201041  0.31227058  0.45262693     0.37730
C875        C  0.60197593  0.34923804  0.44218608     0.36160
C876        C  0.69249089  0.39916687  0.53907478     0.36160
N877        N  0.57898296  0.33388223  0.43152486    -0.38660
N878        N  0.70762986  0.40711310  0.56318437    -0.38660
N879        N  0.66551160  0.28594401  0.43971443    -0.38110
N880        N  0.64368088  0.47184144  0.52228043    -0.38110
C881        C  0.40031138  0.44973699  0.63489374    -0.04780
C882        C  0.37549273  0.43138849  0.65582054    -0.01890
C883        C  0.35235725  0.44880407  0.67705523     0.03100
C884        C  0.35366067  0.48449824  0.67983262    -0.04780
C885        C  0.37524172  0.50337639  0.65824142    -0.01880
C886        C  0.39662846  0.48661384  0.63454239     0.03090
C887        C  0.37441886  0.39438529  0.65956601     0.37740
C888        C  0.37490342  0.54060904  0.66014026     0.37730
C889        C  0.41065602  0.50853861  0.60820893     0.36160
C890        C  0.32787009  0.42963764  0.69781349     0.36160
N891        N  0.41974668  0.52718373  0.58693611    -0.38660
N892        N  0.30843024  0.41442394  0.71429236    -0.38660
N893        N  0.37465311  0.57024482  0.66172038    -0.38110
N894        N  0.37067196  0.36542412  0.66538900    -0.38110
C895        C  0.35424057  0.67947381  0.49990428    -0.04780
C896        C  0.38913229  0.67777347  0.50827948    -0.01890
C897        C  0.41134121  0.65687255  0.48901868     0.03100
C898        C  0.39840654  0.63489775  0.46256619    -0.04780
C899        C  0.36197278  0.63032703  0.46262732    -0.01880
C900        C  0.34081803  0.65523883  0.47694948     0.03090
C901        C  0.40268365  0.69945524  0.53512566     0.37740
C902        C  0.34501833  0.59846403  0.45330706     0.37730
C903        C  0.30534563  0.65620570  0.46639075     0.36160
C904        C  0.44750187  0.66252512  0.49355025     0.36160
N905        N  0.27722545  0.65676884  0.45749436    -0.38660
N906        N  0.47580129  0.66979107  0.49743991    -0.38660
N907        N  0.33032293  0.57347840  0.44677664    -0.38110
N908        N  0.41349705  0.71673744  0.55652426    -0.38110
C909        C  0.68657921  0.55721194  0.68866301    -0.04780
C910        C  0.66246309  0.57933838  0.70292383    -0.01890
C911        C  0.64017248  0.59891599  0.68198505     0.03100
C912        C  0.63974574  0.59547243  0.64503788    -0.04780
C913        C  0.66527682  0.57285733  0.63147633    -0.01880
C914        C  0.68761940  0.55397677  0.65295415     0.03090
C915        C  0.66241001  0.58471952  0.73974970     0.37740
C916        C  0.66855029  0.56705914  0.59504122     0.37730
C917        C  0.71137182  0.53003080  0.63796308     0.36160
C918        C  0.62282104  0.62574197  0.70043855     0.36160
N919        N  0.73018580  0.51101063  0.62583931    -0.38660
N920        N  0.61128350  0.64679576  0.71745934    -0.38660
N921        N  0.67252782  0.56067917  0.56653592    -0.38110
N922        N  0.66199822  0.58946081  0.76888988    -0.38110
C923        C  0.69149887  0.47649934  0.36304814    -0.04780
C924        C  0.70284127  0.45988157  0.39299925    -0.01890
C925        C  0.68026002  0.45271573  0.42022503     0.03100
C926        C  0.64395849  0.45373490  0.41526276    -0.04780
C927        C  0.63317150  0.47268664  0.38532904    -0.01880
C928        C  0.65673476  0.48472253  0.36047693     0.03090
C929        C  0.73781721  0.44812940  0.39578696     0.37740
C930        C  0.59761071  0.48026854  0.37917667     0.37730
C931        C  0.64487966  0.50592255  0.33219829     0.36160
C932        C  0.69677843  0.45039749  0.45306617     0.36160
N933        N  0.63525897  0.52286286  0.30978542    -0.38660
N934        N  0.71339106  0.45052956  0.47756038    -0.38660
N935        N  0.56977464  0.48680172  0.37221433    -0.38110
N936        N  0.76546874  0.43837669  0.39830388    -0.38110
C937        C  0.48037318  0.68747815  0.36347547    -0.04780
C938        C  0.46341572  0.70091295  0.39195881    -0.01890
C939        C  0.44322819  0.67959317  0.41367359     0.03100
C940        C  0.44382565  0.64236641  0.41171658    -0.04780
C941        C  0.46077539  0.62969884  0.38148310    -0.01880
C942        C  0.47941237  0.65166297  0.35898233     0.03090
C943        C  0.46384405  0.73780432  0.39783874     0.37740
C944        C  0.46029023  0.59343953  0.37257088     0.37730
C945        C  0.49944832  0.63667909  0.33183448     0.36160
C946        C  0.41754197  0.69877377  0.43168410     0.36160
N947        N  0.51544426  0.62455529  0.31038413    -0.38660
N948        N  0.39760293  0.71678391  0.44358434    -0.38660
N949        N  0.46089454  0.56485417  0.36480721    -0.38110
N950        N  0.46358545  0.76694718  0.40332345    -0.38110
C951        C  0.55416122  0.68986438  0.68096060    -0.04780
C952        C  0.54494842  0.65499392  0.67865431    -0.01890
C953        C  0.56460863  0.63203539  0.65893844     0.03100
C954        C  0.59234552  0.64412842  0.63788532    -0.04780
C955        C  0.59555729  0.68112528  0.63522060    -0.01880
C956        C  0.57951233  0.70274426  0.65893779     0.03090
C957        C  0.51645787  0.64211878  0.69872164     0.37740
C958        C  0.61169724  0.69912567  0.60685883     0.37730
C959        C  0.59042268  0.73843382  0.66119218     0.36160
C960        C  0.56001526  0.59595323  0.66690937     0.36160
N961        N  0.59941142  0.76673828  0.66284480    -0.38660
N962        N  0.55590334  0.56816696  0.67682133    -0.38660
N963        N  0.62334462  0.71517360  0.58470234    -0.38110
N964        N  0.49377635  0.63182896  0.71470034    -0.38110
C965        C  0.64523693  0.63818128  0.59711800    -0.04780
C966        C  0.64672157  0.64032611  0.56033176    -0.01890
C967        C  0.66849054  0.66428354  0.54350018     0.03100
C968        C  0.69490292  0.68050625  0.56131741    -0.04780
C969        C  0.69859797  0.67391288  0.59623090    -0.01880
C970        C  0.67258683  0.65649349  0.61446405     0.03090
C971        C  0.63062740  0.61588061  0.53824075     0.37740
C972        C  0.72880259  0.68659002  0.61390310     0.37730
C973        C  0.67411290  0.66136418  0.65104361     0.36160
C974        C  0.66429549  0.67172228  0.50729495     0.36160
N975        N  0.67839621  0.66786797  0.67952911    -0.38660
N976        N  0.66085146  0.67810795  0.47857063    -0.38660
N977        N  0.75306084  0.69609506  0.62789366    -0.38110
N978        N  0.62021157  0.59604205  0.51908823    -0.38110
C979        C  0.10596971  0.90455710  0.91011956    -0.04780
C980        C  0.12520857  0.87720793  0.89406486    -0.01890
C981        C  0.11337979  0.86005926  0.86462071     0.03100
C982        C  0.07956453  0.86265181  0.85441020    -0.04780
C983        C  0.05817939  0.88462440  0.87199188    -0.01880
C984        C  0.07083583  0.90503188  0.89931874     0.03090
C985        C  0.15396781  0.86014153  0.90978922     0.37740
C986        C  0.02232980  0.88538808  0.86223220     0.37730
C987        C  0.04501586  0.92314711  0.91667052     0.36160
C988        C  0.13589746  0.83783071  0.84549576     0.36160
N989        N  0.02152974  0.93722587  0.92661885    -0.38660
N990        N  0.15372794  0.82025156  0.83016706    -0.38660
N991        N  0.99384714  0.88590828  0.85460651    -0.38110
N992        N  0.17622706  0.84402702  0.92062973    -0.38110
C993        C  0.14603045  0.90941168  0.96216249    -0.04780
C994        C  0.17970061  0.91892617  0.97263432    -0.01890
C995        C  0.20207034  0.89426531  0.98630335     0.03100
C996        C  0.18976601  0.86168177  0.99690182    -0.04780
C997        C  0.15416018  0.85558345  0.99540774    -0.01880
C998        C  0.13255193  0.87858518  0.97750568     0.03090
C999        C  0.19201509  0.95408831  0.97232189     0.37400
C1000       C  0.13944652  0.82568602  0.01228513     0.37730
C1001       C  0.09632248  0.87089244  0.97603512     0.36160
C1002       C  0.23814675  0.90276417  0.98697847     0.36160
N1003       N  0.06749809  0.86454659  0.97525954    -0.38660
N1004       N  0.26668899  0.91041256  0.98681756    -0.38660
N1005       N  0.12752674  0.80191753  0.02573514    -0.38110
N1006       N  0.20461665  0.98099064  0.97380972    -0.38110
C1007       C  0.14894466  0.95451661  0.91274219    -0.04780
C1008       C  0.16977889  0.93829098  0.88789254    -0.01890
C1009       C  0.17705798  0.95472684  0.85683908     0.03100
C1010       C  0.17976709  0.99057225  0.85619642    -0.04780
C1011       C  0.16826222  0.00889291  0.88470528    -0.01880
C1012       C  0.15260471  0.99134336  0.91271531     0.03090
C1013       C  0.19783520  0.91718490  0.89913540     0.37740
C1014       C  0.17277386  0.04589505  0.88515937     0.37730
C1015       C  0.14611009  0.01147101  0.94276532     0.36160
C1016       C  0.18954264  0.93446846  0.82863230     0.36160
N1017       N  0.14265683  0.02866094  0.96637189    -0.38660
N1018       N  0.19943141  0.91816250  0.80625730    -0.38660
N1019       N  0.17635924  0.07539638  0.88546038    -0.38110
N1020       N  0.22173502  0.90158106  0.90657113    -0.38110
C1021       C  0.04985604  0.99998045  0.99868885    -0.04780
C1022       C  0.06048615  0.00719748  0.96457757    -0.01890
C1023       C  0.07809893  0.98263641  0.94417122     0.03100
C1024       C  0.09772574  0.95526925  0.95920576    -0.04780
C1025       C  0.09395423  0.95341738  0.99613991    -0.01880
C1026       C  0.06807139  0.97174148  0.01401078     0.03090
C1027       C  0.06720372  0.04211865  0.95459144     0.37740
C1028       C  0.11847733  0.93712969  0.01884140     0.37730
C1029       C  0.06373244  0.96313888  0.05030215     0.36160
C1030       C  0.07857200  0.98886786  0.90743850     0.36160
N1031       N  0.06135558  0.95614047  0.07901888    -0.38660
N1032       N  0.07850578  0.99393988  0.87825595    -0.38660
N1033       N  0.13706030  0.92546299  0.03875582    -0.38110
N1034       N  0.07829447  0.06808156  0.94513767    -0.38110
C1035       C  0.89692720  0.91947025  0.08902293    -0.04780
C1036       C  0.89962586  0.90906305  0.05419511    -0.01890
C1037       C  0.88009776  0.88035191  0.04206095     0.03100
C1038       C  0.85716801  0.86275660  0.06401647    -0.04780
C1039       C  0.85073410  0.87694435  0.09604559    -0.01880
C1040       C  0.86542709  0.90855521  0.10421971     0.03090
C1041       C  0.91388132  0.93185437  0.02882168     0.37740
C1042       C  0.82445622  0.86283739  0.11826499     0.37730
C1043       C  0.83984831  0.93398363  0.11192007     0.36160
C1044       C  0.88478180  0.86780402  0.00768292     0.36160
N1045       N  0.81837136  0.95346498  0.11689940    -0.38660
N1046       N  0.88868542  0.85713194  0.98050954    -0.38660
N1047       N  0.80333710  0.85222849  0.13609467    -0.38110
N1048       N  0.92299616  0.94997600  0.00710432    -0.38110
C1049       C  0.90429929  0.95732513  0.13983918    -0.04780
C1050       C  0.89246600  0.94109651  0.17108887    -0.01890
C1051       C  0.87332376  0.95927390  0.19520330     0.03100
C1052       C  0.86071746  0.99204228  0.18726329    -0.04780
C1053       C  0.86696145  0.00616202  0.15459740    -0.01880
C1054       C  0.88684367  0.98824830  0.13050695     0.03090
C1055       C  0.89196228  0.90394198  0.17576260     0.37740
C1056       C  0.85238310  0.03907116  0.14548051     0.37730
C1057       C  0.88684880  0.00038501  0.09525863     0.36160
C1058       C  0.86307613  0.94212380  0.22681202     0.36160
N1059       N  0.88677133  0.01014170  0.06724947    -0.38660
N1060       N  0.85484366  0.92809086  0.25166714    -0.38660
N1061       N  0.84083564  0.06540039  0.13831019    -0.38110
N1062       N  0.89001586  0.87453420  0.17995923    -0.38110
C1063       C  0.94812350  0.90898446  0.13309865    -0.04780
C1064       C  0.94891820  0.87261279  0.12633535    -0.01890
C1065       C  0.96420224  0.84937448  0.15002585     0.03100
C1066       C  0.97116613  0.85943151  0.18395403    -0.04780
C1067       C  0.97122135  0.89505626  0.19035099    -0.01880
C1068       C  0.96618446  0.91879802  0.16336940     0.03090
C1069       C  0.93934575  0.85764839  0.09402284     0.37740
C1070       C  0.97305899  0.90842457  0.22475072     0.37730
C1071       C  0.98083995  0.95250127  0.16812114     0.36160
C1072       C  0.97490953  0.81586308  0.13828300     0.36160
N1073       N  0.99551134  0.97749527  0.17459494    -0.38660
N1074       N  0.98375811  0.78952335  0.12834554    -0.38660
N1075       N  0.97369633  0.91986517  0.25192906    -0.38110
N1076       N  0.93525237  0.84239788  0.06909954    -0.38110
C1077       C  0.00196630  0.00198707  0.04721260    -0.04780
C1078       C  0.99023417  0.01404417  0.07962227    -0.01890
C1079       C  0.96442211  0.99624560  0.09945141     0.03100
C1080       C  0.95420229  0.96115384  0.09224852    -0.04780
C1081       C  0.97543432  0.94662718  0.06717670    -0.01880
C1082       C  0.99112867  0.96692531  0.04118724     0.03090
C1083       C  0.00710667  0.04231263  0.09634359     0.37740
C1084       C  0.98918083  0.91244614  0.07168340     0.37730
C1085       C  0.00052390  0.94665649  0.01207717     0.36160
C1086       C  0.95303123  0.01433507  0.12957189     0.36160
N1087       N  0.00792575  0.92621901  0.99231585    -0.38660
N1088       N  0.94543231  0.03013711  0.15323849    -0.38660
N1089       N  0.00372580  0.88679771  0.07394589    -0.38110
N1090       N  0.01899412  0.06440683  0.11197485    -0.38110
C1091       C  0.89818745  0.09628544  0.91013722    -0.04780
C1092       C  0.90932328  0.07591037  0.88157886    -0.01890
C1093       C  0.88603476  0.05939265  0.85911446     0.03100
C1094       C  0.85067494  0.06255325  0.86314449    -0.04780
C1095       C  0.83869292  0.08119330  0.89115124    -0.01880
C1096       C  0.86143967  0.09925179  0.91304535     0.03090
C1097       C  0.94496919  0.07007635  0.87437066     0.37740
C1098       C  0.80210738  0.08455353  0.89621546     0.37730
C1099       C  0.84435921  0.12478978  0.93323772     0.36160
C1100       C  0.89886192  0.03758152  0.83213963     0.36160
N1101       N  0.82748798  0.14491218  0.94642820    -0.38660
N1102       N  0.90922907  0.02029892  0.81073178    -0.38660
N1103       N  0.77322196  0.08768044  0.90089540    -0.38110
N1104       N  0.97222963  0.06314731  0.86590262    -0.38110
C1105       C  0.90889486  0.14207541  0.95999906    -0.04780
C1106       C  0.91201408  0.17902004  0.95835452    -0.01890
C1107       C  0.88795999  0.20002822  0.97433510     0.03100
C1108       C  0.86571792  0.18633592  0.99916072    -0.04780
C1109       C  0.86887549  0.15138747  0.00827996    -0.01880
C1110       C  0.88959185  0.12918039  0.98866936     0.03090
C1111       C  0.94165215  0.19712954  0.94489297     0.37740
C1112       C  0.84860028  0.13764084  0.03622589     0.37730
C1113       C  0.88745229  0.09277955  0.99639231     0.36160
C1114       C  0.88560220  0.23575602  0.96358191     0.36160
N1115       N  0.88480814  0.06403700  0.00367188    -0.38660
N1116       N  0.88394789  0.26409050  0.95463120    -0.38660
N1117       N  0.83235432  0.12661512  0.05841998    -0.38110
N1118       N  0.96502868  0.21270672  0.93530874    -0.38110
C1119       C  0.94644931  0.13893989  0.90493883    -0.04780
C1120       C  0.98268686  0.13799459  0.90025050    -0.01890
C1121       C  0.99995610  0.16154550  0.87836395     0.03100
C1122       C  0.98179193  0.18526903  0.85855559    -0.04780
C1123       C  0.94619449  0.18475784  0.85962046    -0.01880
C1124       C  0.92854243  0.16203472  0.88194609     0.03090
C1125       C  0.00253144  0.11009954  0.91309453     0.37740
C1126       C  0.92754471  0.20893170  0.83816936     0.37730
C1127       C  0.89187501  0.16559527  0.88172643     0.36160
C1128       C  0.03683359  0.16094592  0.87560180     0.36160
N1129       N  0.86307161  0.17101621  0.87900512    -0.38660
N1130       N  0.06619248  0.16040700  0.87340338    -0.38660
N1131       N  0.91283295  0.22829728  0.82121728    -0.38110
N1132       N  0.01779440  0.08621421  0.92101090    -0.38110
C1133       C  0.99746428  0.04712161  0.99862736    -0.04780
C1134       C  0.98511665  0.08025369  0.00825663    -0.01890
C1135       C  0.97023257  0.10323239  0.98396426     0.03100
C1136       C  0.94974134  0.09086337  0.95627754    -0.04780
C1137       C  0.94992975  0.05396219  0.95489955    -0.01880
C1138       C  0.97637652  0.03388738  0.97142148     0.03090
C1139       C  0.98204962  0.09114552  0.04327029     0.37740
C1140       C  0.92065409  0.03493782  0.94209695     0.37730
C1141       C  0.97653601  0.99859728  0.96168888     0.36160
C1142       C  0.97546575  0.13940064  0.99062312     0.36160
N1143       N  0.97037526  0.97187552  0.95069276    -0.38660
N1144       N  0.98165788  0.16729014  0.99859222    -0.38660
N1145       N  0.89763151  0.01858915  0.93305178    -0.38110
N1146       N  0.97688800  0.10340958  0.06953271    -0.38110
C1147       C  0.18962728  0.18583876  0.05376611    -0.04780
C1148       C  0.16937100  0.16230551  0.03594690    -0.01890
C1149       C  0.14930941  0.13739058  0.05371481     0.03100
C1150       C  0.14763677  0.13673159  0.09066172    -0.04780
C1151       C  0.17376242  0.15746825  0.10706140    -0.01880
C1152       C  0.19122809  0.18378151  0.08931190     0.03090
C1153       C  0.16938024  0.16384777  0.99881642     0.37740
C1154       C  0.18994246  0.14853543  0.13911676     0.37730
C1155       C  0.21191341  0.20860203  0.10797764     0.36160
C1156       C  0.13640088  0.11010258  0.03252200     0.36160
N1157       N  0.22811088  0.22839617  0.12291455    -0.38660
N1158       N  0.12843541  0.08909451  0.01334605    -0.38660
N1159       N  0.20612004  0.14252749  0.16320155    -0.38110
N1160       N  0.16937967  0.16516879  0.96927611    -0.38110
C1161       C  0.14151453  0.09465669  0.14005606    -0.04780
C1162       C  0.16570848  0.06985698  0.12835070    -0.01890
C1163       C  0.18550327  0.05000559  0.15141600     0.03100
C1164       C  0.18481805  0.05607740  0.18672957    -0.04780
C1165       C  0.16289195  0.08148115  0.19909750    -0.01880
C1166       C  0.14354281  0.10207223  0.17631481     0.03090
C1167       C  0.17283543  0.06530829  0.09242819     0.37740
C1168       C  0.16351244  0.09008157  0.23523145     0.37730
C1169       C  0.13543082  0.13568322  0.18998234     0.36160
C1170       C  0.20657396  0.02251864  0.13855609     0.36160
N1171       N  0.13123629  0.16244319  0.20179662    -0.38660
N1172       N  0.22319611  0.00054582  0.12828259    -0.38660
N1173       N  0.16389838  0.09752280  0.26378552    -0.38110
N1174       N  0.18129253  0.06051711  0.06462593    -0.38110
C1175       C  0.06008241  0.18838772  0.17840233    -0.04780
C1176       C  0.07363953  0.20047327  0.14718113    -0.01890
C1177       C  0.09344033  0.17887578  0.12630403     0.03100
C1178       C  0.09454980  0.14230529  0.13242377    -0.04780
C1179       C  0.07091138  0.12976291  0.15787371    -0.01880
C1180       C  0.05523632  0.15250826  0.18129843     0.03090
C1181       C  0.06330500  0.23353095  0.13343176     0.37740
C1182       C  0.06642787  0.09345345  0.16489906     0.37730
C1183       C  0.03357044  0.13845061  0.20803681     0.36160
C1184       C  0.10902870  0.19590155  0.09709962     0.36160
N1185       N  0.01644730  0.12663068  0.22916204    -0.38660
N1186       N  0.11928700  0.21155720  0.07400738    -0.38660
N1187       N  0.06163478  0.06533466  0.17346922    -0.38110
N1188       N  0.05475793  0.25923929  0.12121670    -0.38110
C1189       C  0.05356138  0.05008070  0.04085546    -0.04780
C1190       C  0.05594741  0.08669514  0.03829949    -0.01890
C1191       C  0.07118112  0.10710419  0.06464581     0.03100
C1192       C  0.09358580  0.09270864  0.09018356    -0.04780
C1193       C  0.09166793  0.05591514  0.09133253    -0.01880
C1194       C  0.07961064  0.03714005  0.06298465     0.03090
C1195       C  0.05188537  0.10436851  0.00583423     0.37740
C1196       C  0.10195307  0.03477068  0.12002665     0.37730
C1197       C  0.10879196  0.02146418  0.04735590     0.36160
C1198       C  0.06179170  0.14289574  0.06399753     0.36160
N1199       N  0.13340995  0.00987580  0.03639111    -0.38660
N1200       N  0.05105186  0.17035388  0.06122343    -0.38660
N1201       N  0.10952337  0.01653608  0.14225802    -0.38110
N1202       N  0.04996701  0.12113272  0.98136026    -0.38110
loop_ 
_geom_bond_atom_site_label_1 
_geom_bond_atom_site_label_2 
_geom_bond_distance 
_geom_bond_site_symmetry_2 
_ccdc_geom_bond_type 
C1         C1150   1.621       .  S
C1         C1161   1.609       .  S
C1         C1178   1.604       .  S
C1         C1192   1.630       .  S
C2         C1091   1.620       .  S
C2         C1105   1.607       .  S
C2         C1119   1.611       .  S
C2         C1136   1.640       .  S
C3         C1035   1.626       .  S
C3         C1049   1.596       .  S
C3         C1063   1.606       .  S
C3         C1080   1.638       .  S
C4          C979   1.642       .  S
C4          C993   1.578       .  S
C4         C1007   1.617       .  S
C4         C1024   1.650       .  S
C5         C1021   1.631   1_544  S
C5         C1077   1.644       .  S
C5         C1133   1.654   1_454  S
C5         C1189   1.654       .  S
N6            N7   1.318       .  A
N6           C10   1.353       .  A
N6          Cu14   2.095       .  S
N7            C8   1.333       .  A
N7          Cu13   2.019       .  S
C8            C9   1.372       .  A
C8           H11   1.083       .  S
C9           C10   1.393       .  A
C9          C312   1.466       .  S
C10          H12   1.082       .  S
Cu13         N16   2.020       .  S
Cu14         N24   2.100       .  S
Cu15         N17   2.086       .  S
Cu15         N23   2.091       .  S
N16          N17   1.318       .  A
N16          C20   1.334       .  A
N17          C18   1.351       .  A
C18          C19   1.391       .  A
C18          H21   1.082       .  S
C19          C20   1.372       .  A
C19         C212   1.462       .  S
C20          H22   1.083       .  S
N23          N24   1.328       .  A
N23          C27   1.347       .  A
N24          C25   1.347       .  A
C25          C26   1.382       .  A
C25          H28   1.082       .  S
C26          C27   1.382       .  A
C26         C968   1.487       .  S
C27          H29   1.081       .  S
N30          N31   1.318       .  A
N30          C34   1.352       .  A
N30         Cu38   2.091       .  S
N31          C32   1.335       .  A
N31         Cu37   2.021       .  S
C32          C33   1.372       .  A
C32          H35   1.082       .  S
C33          C34   1.392       .  A
C33         C326   1.464       .  S
C34          H36   1.082       .  S
Cu37         N40   2.020       .  S
Cu38         N48   2.095       .  S
Cu39         N41   2.101       .  S
Cu39         N47   2.106       .  S
N40          N41   1.318       .  A
N40          C44   1.334       .  A
N41          C42   1.354       .  A
C42          C43   1.394       .  A
C42          H45   1.082       .  S
C43          C44   1.372       .  A
C43         C112   1.468       .  S
C44          H46   1.083       .  S
N47          N48   1.328       .  A
N47          C51   1.349       .  A
N48          C49   1.346       .  A
C49          C50   1.386       .  A
C49          H52   1.082       .  S
C50          C51   1.388       .  A
C50         C951   1.500       .  S
C51          H53   1.082       .  S
N54          N55   1.317       .  A
N54          C58   1.355       .  A
N54         Cu62   2.106       .  S
N55          C56   1.333       .  A
N55         Cu61   2.011       .  S
C56          C57   1.371       .  A
C56          H59   1.082       .  S
C57          C58   1.396       .  A
C57         C526   1.468       .  S
C58          H60   1.082       .  S
Cu61         N64   2.011       .  S
Cu62         N72   2.111       .  S
Cu63         N65   2.092       .  S
Cu63         N71   2.099       .  S
N64          N65   1.317       .  A
N64          C68   1.332       .  A
N65          C66   1.353       .  A
C66          C67   1.394       .  A
C66          H69   1.082       .  S
C67          C68   1.371       .  A
C67         C113   1.464       .  S
C68          H70   1.083       .  S
N71          N72   1.326       .  A
N71          C75   1.346       .  A
N72          C73   1.346       .  A
C73          C74   1.394       .  A
C73          H76   1.079       .  S
C74          C75   1.391       .  A
C74         C937   1.515       .  S
C75          H77   1.082       .  S
N78          N79   1.316       .  A
N78          C82   1.354       .  A
N78         Cu86   2.092       .  S
N79          C80   1.332       .  A
N79         Cu85   2.013       .  S
C80          C81   1.372       .  A
C80          H83   1.083       .  S
C81          C82   1.394       .  A
C81         C427   1.466       .  S
C82          H84   1.082       .  S
Cu85         N88   2.013       .  S
Cu86         N96   2.098       .  S
Cu87         N89   2.093       .  S
Cu87         N95   2.099       .  S
N88          N89   1.317       .  A
N88          C92   1.332       .  A
N89          C90   1.353       .  A
C90          C91   1.394       .  A
C90          H93   1.082       .  S
C91          C92   1.371       .  A
C91         C126   1.464       .  S
C92          H94   1.083       .  S
N95          N96   1.328       .  A
N95          C99   1.348       .  A
N96          C97   1.343       .  A
C97          C98   1.387       .  A
C97         H100   1.081       .  S
C98          C99   1.388       .  A
C98         C923   1.503       .  S
C99         H101   1.082       .  S
O102       Cu110   1.999   1_556  S
O102        C112   1.279       .  A
O103       Cu110   1.986       .  S
O103        C113   1.278       .  A
O104       Cu110   2.013       .  S
O104        C114   1.275       .  A
O105       Cu110   2.016       .  S
O105        C115   1.275       .  A
O106       Cu111   1.987       .  S
O106        C115   1.278       .  A
O107       Cu111   1.993       .  S
O107        C114   1.278       .  A
O108       Cu111   2.017       .  S
O108        C113   1.276       .  A
O109       Cu111   2.016   1_556  S
O109        C112   1.276       .  A
Cu110      Cu111   2.378       .  S
C114        C133   1.465       .  S
C115        C405   1.464       .  S
O116       Cu124   2.019       .  S
O116        C126   1.276       .  A
O117       Cu124   2.016   1_556  S
O117        C127   1.276       .  A
O118       Cu124   1.989       .  S
O118        C128   1.277       .  A
O119       Cu124   2.000       .  S
O119        C129   1.280       .  A
O120       Cu125   2.014       .  S
O120        C129   1.275       .  A
O121       Cu125   2.014       .  S
O121        C128   1.276       .  A
O122       Cu125   1.997   1_556  S
O122        C127   1.279       .  A
O123       Cu125   1.983       .  S
O123        C126   1.277       .  A
Cu124      Cu125   2.378       .  S
C127        C167   1.466       .  S
C128        C505   1.462       .  S
C129        C143   1.468       .  S
N130        N131   1.316       .  A
N130        C134   1.352       .  A
N130       Cu138   2.092       .  S
N131        C132   1.334       .  A
N131       Cu137   2.012       .  S
C132        C133   1.372       .  A
C132        H135   1.083       .  S
C133        C134   1.394       .  A
C134        H136   1.082       .  S
Cu137       N140   2.011       .  S
Cu138       N148   2.098       .  S
Cu139       N141   2.110       .  S
Cu139       N147   2.116       .  S
N140        N141   1.318       .  A
N140        C144   1.333       .  A
N141        C142   1.355       .  A
C142        C143   1.396       .  A
C142        H145   1.082       .  S
C143        C144   1.369       .  A
C144        H146   1.083       .  S
N147        N148   1.330       .  A
N147        C151   1.354       .  A
N148        C149   1.343       .  A
C149        C150   1.381       .  A
C149        H152   1.082       .  S
C150        C151   1.387       .  A
C150       C1038   1.491       .  S
C151        H153   1.081       .  S
N154        N155   1.317       .  A
N154        C158   1.351       .  A
N154       Cu162   2.084       .  S
N155        C156   1.334       .  A
N155       Cu161   2.017       .  S
C156        C157   1.372       .  A
C156        H159   1.082       .  S
C157        C158   1.391       .  A
C157        C226   1.462       .  S
C158        H160   1.082       .  S
Cu161       N164   2.017       .  S
Cu162       N172   2.089       .  S
Cu163       N165   2.101       .  S
Cu163       N171   2.104       .  S
N164        N165   1.318       .  A
N164        C168   1.334       .  A
N165        C166   1.354       .  A
C166        C167   1.394       .  A
C166        H169   1.082       .  S
C167        C168   1.371       .  A
C168        H170   1.083       .  S
N171        N172   1.327       .  A
N171        C175   1.345       .  A
N172        C173   1.346       .  A
C173        C174   1.386       .  A
C173        H176   1.082       .  S
C174        C175   1.390       .  A
C174        C909   1.504       .  S
C175        H177   1.082       .  S
N178        N179   1.318       .  A
N178        C182   1.353       .  A
N178       Cu186   2.095       .  S
N179        C180   1.333       .  A
N179       Cu185   2.014       .  S
C180        C181   1.371       .  A
C180        H183   1.082       .  S
C181        C182   1.394       .  A
C181        C588   1.464       .  S
C182        H184   1.082       .  S
Cu185       N188   2.015       .  S
Cu186       N196   2.101       .  S
Cu187       N189   2.086       .  S
Cu187       N195   2.090       .  S
N188        N189   1.317       .  A
N188        C192   1.334       .  A
N189        C190   1.351       .  A
C190        C191   1.391       .  A
C190        H193   1.082       .  S
C191        C192   1.371       .  A
C191        C213   1.460       .  S
C192        H194   1.082       .  S
N195        N196   1.328       .  A
N195        C199   1.343       .  A
N196        C197   1.348       .  A
C197        C198   1.387       .  A
C197        H200   1.083       .  S
C198        C199   1.385       .  A
C198        C895   1.497       .  S
C199        H201   1.082       .  S
O202       Cu210   1.992   1_655  S
O202        C212   1.278       .  A
O203       Cu210   1.991       .  S
O203        C213   1.278       .  A
O204       Cu210   2.012       .  S
O204        C214   1.275       .  A
O205       Cu210   2.012       .  S
O205        C215   1.275       .  A
O206       Cu211   1.987       .  S
O206        C215   1.278       .  A
O207       Cu211   1.991       .  S
O207        C214   1.278       .  A
O208       Cu211   2.008       .  S
O208        C213   1.275       .  A
O209       Cu211   2.008   1_655  S
O209        C212   1.275       .  A
Cu210      Cu211   2.377       .  S
C214        C443   1.463       .  S
C215        C243   1.462       .  S
O216       Cu224   1.994   1_655  S
O216        C226   1.278       .  A
O217       Cu224   1.987       .  S
O217        C227   1.278       .  A
O218       Cu224   2.018       .  S
O218        C228   1.276       .  A
O219       Cu224   2.019       .  S
O219        C229   1.276       .  A
O220       Cu225   1.992       .  S
O220        C229   1.278       .  A
O221       Cu225   1.990       .  S
O221        C228   1.278       .  A
O222       Cu225   2.011       .  S
O222        C227   1.275       .  A
O223       Cu225   2.007   1_655  S
O223        C226   1.275       .  A
Cu224      Cu225   2.378       .  S
C227        C257   1.461       .  S
C228        C233   1.465       .  S
C229        C633   1.467       .  S
N230        N231   1.317       .  A
N230        C234   1.353       .  A
N230       Cu238   2.092       .  S
N231        C232   1.333       .  A
N231       Cu237   2.017       .  S
C232        C233   1.372       .  A
C232        H235   1.082       .  S
C233        C234   1.393       .  A
C234        H236   1.082       .  S
Cu237       N240   2.016       .  S
Cu238       N248   2.098       .  S
Cu239       N241   2.086       .  S
Cu239       N247   2.091       .  S
N240        N241   1.318       .  A
N240        C244   1.333       .  A
N241        C242   1.351       .  A
C242        C243   1.391       .  A
C242        H245   1.082       .  S
C243        C244   1.371       .  A
C244        H246   1.083       .  S
N247        N248   1.330       .  A
N247        C251   1.348       .  A
N248        C249   1.344       .  A
C249        C250   1.381       .  A
C249        H252   1.082       .  S
C250        C251   1.380       .  A
C250        C982   1.485       .  S
C251        H253   1.082       .  S
N254        N255   1.317       .  A
N254        C258   1.351       .  A
N254       Cu262   2.084       .  S
N255        C256   1.333       .  A
N255       Cu261   2.015       .  S
C256        C257   1.372       .  A
C256        H259   1.083       .  S
C257        C258   1.392       .  A
C258        H260   1.082       .  S
Cu261       N264   2.014       .  S
Cu262       N272   2.090       .  S
Cu263       N265   2.106       .  S
Cu263       N271   2.112       .  S
N264        N265   1.317       .  A
N264        C268   1.333       .  A
N265        C266   1.355       .  A
C266        C267   1.397       .  A
C266        H269   1.082       .  S
C267        C268   1.371       .  A
C267        C388   1.469       .  S
C268        H270   1.083       .  S
N271        N272   1.329       .  A
N271        C275   1.349       .  A
N272        C273   1.346       .  A
C273        C274   1.380       .  A
C273        H276   1.082       .  S
C274        C275   1.385       .  A
C274        C884   1.488       .  S
C275        H277   1.082       .  S
N278        N279   1.318       .  A
N278        C282   1.353       .  A
N278       Cu286   2.102       .  S
N279        C280   1.333       .  A
N279       Cu285   2.013       .  S
C280        C281   1.370       .  A
C280        H283   1.082       .  S
C281        C282   1.395       .  A
C281        C626   1.465       .  S
C282        H284   1.082       .  S
Cu285       N288   2.014       .  S
Cu286       N296   2.107       .  S
Cu287       N289   2.091       .  S
Cu287       N295   2.096       .  S
N288        N289   1.317       .  A
N288        C292   1.333       .  A
N289        C290   1.353       .  A
C290        C291   1.393       .  A
C290        H293   1.082       .  S
C291        C292   1.372       .  A
C291        C313   1.463       .  S
C292        H294   1.082       .  S
N295        N296   1.329       .  A
N295        C299   1.343       .  A
N296        C297   1.351       .  A
C297        C298   1.387       .  A
C297        H300   1.083       .  S
C298        C299   1.384       .  A
C298        C870   1.496       .  S
C299        H301   1.083       .  S
O302       Cu310   1.992   1_565  S
O302        C312   1.278       .  A
O303       Cu310   1.986       .  S
O303        C313   1.277       .  A
O304       Cu310   2.015       .  S
O304        C314   1.276       .  A
O305       Cu310   2.016       .  S
O305        C315   1.276       .  A
O306       Cu311   1.986       .  S
O306        C315   1.278       .  A
O307       Cu311   1.982       .  S
O307        C314   1.277       .  A
O308       Cu311   2.017       .  S
O308        C313   1.276       .  A
O309       Cu311   2.017   1_565  S
O309        C312   1.276       .  A
Cu310      Cu311   2.378       .  S
C314        C343   1.462       .  S
C315        C543   1.464       .  S
O316       Cu324   2.010   1_565  S
O316        C326   1.275       .  A
O317       Cu324   2.013       .  S
O317        C327   1.275       .  A
O318       Cu324   1.992       .  S
O318        C328   1.279       .  A
O319       Cu324   1.989       .  S
O319        C329   1.279       .  A
O320       Cu325   2.019       .  S
O320        C329   1.276       .  A
O321       Cu325   2.017       .  S
O321        C328   1.276       .  A
O322       Cu325   1.997       .  S
O322        C327   1.279       .  A
O323       Cu325   1.997   1_565  S
O323        C326   1.279       .  A
Cu324      Cu325   2.377       .  S
C327        C357   1.466       .  S
C328        C333   1.466       .  S
C329        C595   1.466       .  S
N330        N331   1.317       .  A
N330        C334   1.354       .  A
N330       Cu338   2.100       .  S
N331        C332   1.333       .  A
N331       Cu337   2.011       .  S
C332        C333   1.371       .  A
C332        H335   1.082       .  S
C333        C334   1.395       .  A
C334        H336   1.082       .  S
Cu337       N340   2.011       .  S
Cu338       N348   2.105       .  S
Cu339       N341   2.087       .  S
Cu339       N347   2.093       .  S
N340        N341   1.316       .  A
N340        C344   1.332       .  A
N341        C342   1.352       .  A
C342        C343   1.392       .  A
C342        H345   1.082       .  S
C343        C344   1.371       .  A
C344        H346   1.082       .  S
N347        N348   1.327       .  A
N347        C351   1.345       .  A
N348        C349   1.346       .  A
C349        C350   1.391       .  A
C349        H352   1.081       .  S
C350        C351   1.388       .  A
C350       C1094   1.509       .  S
C351        H353   1.082       .  S
N354        N355   1.318       .  A
N354        C358   1.354       .  A
N354       Cu362   2.104       .  S
N355        C356   1.333       .  A
N355       Cu361   2.013       .  S
C356        C357   1.370       .  A
C356        H359   1.082       .  S
C357        C358   1.395       .  A
C358        H360   1.082       .  S
Cu361       N364   2.013       .  S
Cu362       N372   2.110       .  S
Cu363       N365   2.092       .  S
Cu363       N371   2.097       .  S
N364        N365   1.317       .  A
N364        C368   1.334       .  A
N365        C366   1.351       .  A
C366        C367   1.393       .  A
C366        H369   1.082       .  S
C367        C368   1.371       .  A
C367        C488   1.462       .  S
C368        H370   1.083       .  S
N371        N372   1.328       .  A
N371        C375   1.345       .  A
N372        C373   1.350       .  A
C373        C374   1.389       .  A
C373        H376   1.082       .  S
C374        C375   1.386       .  A
C374        C856   1.501       .  S
C375        H377   1.082       .  S
O378       Cu386   1.994   1_556  S
O378        C388   1.279       .  A
O379       Cu386   1.999       .  S
O379        C389   1.279       .  A
O380       Cu386   2.002       .  S
O380        C390   1.274       .  A
O381       Cu386   2.003       .  S
O381        C391   1.275       .  A
O382       Cu387   1.979       .  S
O382        C391   1.276       .  A
O383       Cu387   1.977       .  S
O383        C390   1.277       .  A
O384       Cu387   2.020       .  S
O384        C389   1.277       .  A
O385       Cu387   2.023   1_556  S
O385        C388   1.276       .  A
Cu386      Cu387   2.379       .  S
C389        C457   1.469       .  S
C390        C395   1.455       .  S
C391        C729   1.456       .  S
N392        N393   1.315       .  A
N392        C396   1.349       .  A
N392       Cu400   2.071       .  S
N393        C394   1.330       .  A
N393       Cu399   2.002       .  S
C394        C395   1.370       .  A
C394        H397   1.082       .  S
C395        C396   1.390       .  A
C396        H398   1.082       .  S
Cu399       N402   2.002       .  S
Cu400       N410   2.078       .  S
Cu401       N403   2.100       .  S
Cu401       N409   2.105       .  S
N402        N403   1.316       .  A
N402        C406   1.331       .  A
N403        C404   1.354       .  A
C404        C405   1.396       .  A
C404        H407   1.082       .  S
C405        C406   1.369       .  A
C406        H408   1.082       .  S
N409        N410   1.326       .  A
N409        C413   1.343       .  A
N410        C411   1.343   1_554  A
C411        C412   1.386   1_556  A
C411        H414   1.081       .  S
C412        C413   1.392       .  A
C412        C996   1.504   1_554  S
C413        H415   1.079       .  S
O416       Cu424   2.022       .  S
O416        C426   1.277       .  A
O417       Cu424   2.022   1_655  S
O417        C427   1.277       .  A
O418       Cu424   1.984       .  S
O418        C428   1.277       .  A
O419       Cu424   1.988       .  S
O419        C429   1.277       .  A
O420       Cu425   2.013       .  S
O420        C429   1.275       .  A
O421       Cu425   2.015       .  S
O421        C428   1.276       .  A
O422       Cu425   1.986   1_655  S
O422        C427   1.278       .  A
O423       Cu425   1.993       .  S
O423        C426   1.278       .  A
Cu424      Cu425   2.376       .  S
C426        C467   1.468       .  S
C428        C681   1.461       .  S
C429        C433   1.461       .  S
N430        N431   1.318       .  A
N430        C434   1.353       .  A
N430       Cu438   2.094   1_455  S
N431        C432   1.333       .  A
N431       Cu437   2.015       .  S
C432        C433   1.370       .  A
C432        H435   1.082       .  S
C433        C434   1.392       .  A
C434        H436   1.082   1_455  S
Cu437       N440   2.015       .  S
Cu438       N448   2.098       .  S
Cu439       N441   2.087       .  S
Cu439       N447   2.092   1_455  S
N440        N441   1.316       .  A
N440        C444   1.334       .  A
N441        C442   1.352       .  A
C442        C443   1.392       .  A
C442        H445   1.082       .  S
C443        C444   1.372       .  A
C444        H446   1.082       .  S
N447        N448   1.323       .  A
N447        C451   1.343       .  A
N448        C449   1.344       .  A
C449        C450   1.396       .  A
C449        H452   1.079       .  S
C450        C451   1.394       .  A
C450       C1066   1.518       .  S
C451        H453   1.078   1_655  S
N454        N455   1.318       .  A
N454        C458   1.353       .  A
N454       Cu462   2.100       .  S
N455        C456   1.336       .  A
N455       Cu461   2.025       .  S
C456        C457   1.374       .  A
C456        H459   1.082       .  S
C457        C458   1.394       .  A
C458        H460   1.082       .  S
Cu461       N464   2.025       .  S
Cu462       N472   2.105       .  S
Cu463       N465   2.099       .  S
Cu463       N471   2.104       .  S
N464        N465   1.318       .  A
N464        C468   1.335       .  A
N465        C466   1.354       .  A
C466        C467   1.394       .  A
C466        H469   1.082       .  S
C467        C468   1.373       .  A
C468        H470   1.082       .  S
N471        N472   1.329       .  A
N471        C475   1.347       .  A
N472        C473   1.349       .  A
C473        C474   1.385       .  A
C473        H476   1.082       .  S
C474        C475   1.384       .  A
C474        C839   1.491       .  S
C475        H477   1.082       .  S
O478       Cu486   2.006   1_556  S
O478        C488   1.274       .  A
O479       Cu486   2.007       .  S
O479        C489   1.274       .  A
O480       Cu486   1.997       .  S
O480        C490   1.279       .  A
O481       Cu486   2.003       .  S
O481        C491   1.280       .  A
O482       Cu487   2.011       .  S
O482        C491   1.275       .  A
O483       Cu487   2.014       .  S
O483        C490   1.275       .  A
O484       Cu487   1.996       .  S
O484        C489   1.279       .  A
O485       Cu487   1.996   1_556  S
O485        C488   1.279       .  A
Cu486      Cu487   2.378       .  S
C489        C557   1.463       .  S
C490        C495   1.467       .  S
C491        C739   1.466       .  S
N492        N493   1.318       .  A
N492        C496   1.354       .  A
N492       Cu500   2.101       .  S
N493        C494   1.334       .  A
N493       Cu499   2.019   1_554  S
C494        C495   1.371       .  A
C494        H497   1.082   1_554  S
C495        C496   1.394       .  A
C496        H498   1.082       .  S
Cu499       N502   2.020   1_556  S
Cu500       N510   2.107       .  S
Cu501       N503   2.089       .  S
Cu501       N509   2.093       .  S
N502        N503   1.318       .  A
N502        C506   1.334       .  A
N503        C504   1.351       .  A
C504        C505   1.391       .  A
C504        H507   1.082       .  S
C505        C506   1.372       .  A
C506        H508   1.082   1_554  S
N509        N510   1.327       .  A
N509        C513   1.344       .  A
N510        C511   1.350       .  A
C511        C512   1.389       .  A
C511        H514   1.082       .  S
C512        C513   1.386       .  A
C512       C1108   1.500   1_554  S
C513        H515   1.082       .  S
O516       Cu524   1.996   1_565  S
O516        C526   1.279       .  A
O517       Cu524   1.996       .  S
O517        C527   1.280       .  A
O518       Cu524   2.012       .  S
O518        C528   1.275       .  A
O519       Cu524   2.011       .  S
O519        C529   1.275       .  A
O520       Cu525   2.001       .  S
O520        C529   1.280       .  A
O521       Cu525   1.994       .  S
O521        C528   1.279       .  A
O522       Cu525   2.019       .  S
O522        C527   1.275       .  A
O523       Cu525   2.019   1_565  S
O523        C526   1.276       .  A
Cu524      Cu525   2.377       .  S
C527        C567   1.469       .  S
C528        C533   1.464       .  S
C529        C705   1.466       .  S
N530        N531   1.317       .  A
N530        C534   1.353       .  A
N530       Cu538   2.097       .  S
N531        C532   1.333       .  A
N531       Cu537   2.010       .  S
C532        C533   1.370       .  A
C532        H535   1.083       .  S
C533        C534   1.395       .  A
C534        H536   1.082       .  S
Cu537       N540   2.010       .  S
Cu538       N548   2.103       .  S
Cu539       N541   2.093       .  S
Cu539       N547   2.099       .  S
N540        N541   1.316       .  A
N540        C544   1.332       .  A
N541        C542   1.353       .  A
C542        C543   1.394       .  A
C542        H545   1.082       .  S
C543        C544   1.371       .  A
C544        H546   1.083       .  S
N547        N548   1.329       .  A
N547        C551   1.346       .  A
N548        C549   1.348       .  A
C549        C550   1.385       .  A
C549        H552   1.082       .  S
C550        C551   1.385       .  A
C550       C1052   1.492   1_545  S
C551        H553   1.082       .  S
N554        N555   1.316       .  A
N554        C558   1.352       .  A
N554       Cu562   2.094       .  S
N555        C556   1.332       .  A
N555       Cu561   2.002       .  S
C556        C557   1.370       .  A
C556        H559   1.083       .  S
C557        C558   1.395       .  A
C558        H560   1.082       .  S
Cu561       N564   2.002       .  S
Cu562       N572   2.101       .  S
Cu563       N565   2.111       .  S
Cu563       N571   2.119       .  S
N564        N565   1.316       .  A
N564        C568   1.331       .  A
N565        C566   1.356       .  A
C566        C567   1.399       .  A
C566        H569   1.082       .  S
C567        C568   1.369       .  A
C568        H570   1.082       .  S
N571        N572   1.331       .  A
N571        C575   1.349       .  A
N572        C573   1.348       .  A
C573        C574   1.380       .  A
C573        H576   1.082       .  S
C574        C575   1.385       .  A
C574        C825   1.491       .  S
C575        H577   1.082       .  S
O578       Cu586   2.014   1_565  S
O578        C588   1.275       .  A
O579       Cu586   2.012       .  S
O579        C589   1.275       .  A
O580       Cu586   1.992       .  S
O580        C590   1.279       .  A
O581       Cu586   1.989       .  S
O581        C591   1.278       .  A
O582       Cu587   2.006       .  S
O582        C591   1.275       .  A
O583       Cu587   2.008       .  S
O583        C590   1.274       .  A
O584       Cu587   1.994       .  S
O584        C589   1.278       .  A
O585       Cu587   1.990   1_565  S
O585        C588   1.278       .  A
Cu586      Cu587   2.379       .  S
C589        C667   1.463       .  S
C590        C605   1.462       .  S
C591        C715   1.460       .  S
N592        N593   1.316       .  A
N592        C596   1.355       .  A
N592       Cu600   2.102       .  S
N593        C594   1.331       .  A
N593       Cu599   2.005       .  S
C594        C595   1.370       .  A
C594        H597   1.082       .  S
C595        C596   1.397       .  A
C596        H598   1.082       .  S
Cu599       N602   2.006       .  S
Cu600       N610   2.109       .  S
Cu601       N603   2.092       .  S
Cu601       N609   2.099       .  S
N602        N603   1.316       .  A
N602        C606   1.332       .  A
N603        C604   1.352       .  A
C604        C605   1.394       .  A
C604        H607   1.082       .  S
C605        C606   1.370       .  A
C606        H608   1.083       .  S
N609        N610   1.330       .  A
N609        C613   1.349       .  A
N610        C611   1.346       .  A
C611        C612   1.384       .  A
C611        H614   1.082       .  S
C612        C613   1.383       .  A
C612       C1010   1.487   1_545  S
C613        H615   1.082       .  S
O616       Cu624   1.999   1_655  S
O616        C626   1.280       .  A
O617       Cu624   1.990       .  S
O617        C627   1.278       .  A
O618       Cu624   2.014       .  S
O618        C628   1.276       .  A
O619       Cu624   2.017       .  S
O619        C629   1.275       .  A
O620       Cu625   1.999       .  S
O620        C629   1.280       .  A
O621       Cu625   1.995       .  S
O621        C628   1.279       .  A
O622       Cu625   2.011       .  S
O622        C627   1.275       .  A
O623       Cu625   2.010   1_655  S
O623        C626   1.275       .  A
Cu624      Cu625   2.377       .  S
C627        C657   1.462       .  S
C628        C643   1.465       .  S
C629        C691   1.469       .  S
N630        N631   1.318       .  A
N630        C634   1.354       .  A
N630       Cu638   2.100       .  S
N631        C632   1.333       .  A
N631       Cu637   2.017       .  S
C632        C633   1.372       .  A
C632        H635   1.082       .  S
C633        C634   1.395       .  A
C634        H636   1.082       .  S
Cu637       N640   2.017       .  S
Cu638       N648   2.105       .  S
Cu639       N641   2.093       .  S
Cu639       N647   2.098       .  S
N640        N641   1.317       .  A
N640        C644   1.334       .  A
N641        C642   1.352       .  A
C642        C643   1.393       .  A
C642        H645   1.082       .  S
C643        C644   1.372       .  A
C644        H646   1.082       .  S
N647        N648   1.329       .  A
N647        C651   1.347       .  A
N648        C649   1.348       .  A
C649        C650   1.384   1_455  A
C649        H652   1.082   1_455  S
C650        C651   1.382   1_655  A
C650       C1122   1.489       .  S
C651        H653   1.082       .  S
N654        N655   1.317       .  A
N654        C658   1.351       .  A
N654       Cu662   2.085       .  S
N655        C656   1.334       .  A
N655       Cu661   2.018       .  S
C656        C657   1.372       .  A
C656        H659   1.083       .  S
C657        C658   1.392       .  A
C658        H660   1.082       .  S
Cu661       N664   2.018       .  S
Cu662       N672   2.090       .  S
Cu663       N665   2.093       .  S
Cu663       N671   2.096       .  S
N664        N665   1.318       .  A
N664        C668   1.334       .  A
N665        C666   1.352       .  A
C666        C667   1.392       .  A
C666        H669   1.082       .  S
C667        C668   1.371       .  A
C668        H670   1.083       .  S
N671        N672   1.327       .  A
N671        C675   1.345       .  A
N672        C673   1.346       .  A
C673        C674   1.387       .  A
C673        H676   1.082       .  S
C674        C675   1.388       .  A
C674        C811   1.503       .  S
C675        H677   1.081       .  S
N678        N679   1.315       .  A
N678        C682   1.352       .  A
N678       Cu686   2.081       .  S
N679        C680   1.332       .  A
N679       Cu685   2.011       .  S
C680        C681   1.372       .  A
C680        H683   1.083       .  S
C681        C682   1.392       .  A
C682        H684   1.082       .  S
Cu685       N688   2.010       .  S
Cu686       N696   2.087       .  S
Cu687       N689   2.115       .  S
Cu687       N695   2.121       .  S
N688        N689   1.319       .  A
N688        C692   1.332       .  A
N689        C690   1.356       .  A
C690        C691   1.397       .  A
C690        H693   1.082       .  S
C691        C692   1.369       .  A
C692        H694   1.082       .  S
N695        N696   1.324       .  A
N695        C699   1.352       .  A
N696        C697   1.337       .  A
C697        C698   1.393       .  A
C697        H700   1.081       .  S
C698        C699   1.404       .  A
C698       C1175   1.527       .  S
C699        H701   1.079       .  S
N702        N703   1.317       .  A
N702        C706   1.353       .  A
N702       Cu710   2.101       .  S
N703        C704   1.334       .  A
N703       Cu709   2.013       .  S
C704        C705   1.371       .  A
C704        H707   1.082       .  S
C705        C706   1.395       .  A
C706        H708   1.082       .  S
Cu709       N712   2.013       .  S
Cu710       N720   2.107       .  S
Cu711       N713   2.087       .  S
Cu711       N719   2.091       .  S
N712        N713   1.317       .  A
N712        C716   1.333       .  A
N713        C714   1.351       .  A
C714        C715   1.391       .  A
C714        H717   1.082       .  S
C715        C716   1.371       .  A
C716        H718   1.083       .  S
N719        N720   1.327       .  A
N719        C723   1.345       .  A
N720        C721   1.347       .  A
C721        C722   1.389       .  A
C721        H724   1.082       .  S
C722        C723   1.386       .  A
C722       C1164   1.502       .  S
C723        H725   1.082       .  S
N726        N727   1.318       .  A
N726        C730   1.349       .  A
N726       Cu734   2.073       .  S
N727        C728   1.332       .  A
N727       Cu733   2.016       .  S
C728        C729   1.371       .  A
C728        H731   1.083       .  S
C729        C730   1.388       .  A
C730        H732   1.082       .  S
Cu733       N736   2.017       .  S
Cu734       N744   2.078       .  S
Cu735       N737   2.098       .  S
Cu735       N743   2.102       .  S
N736        N737   1.318       .  A
N736        C740   1.335       .  A
N737        C738   1.353       .  A
C738        C739   1.394       .  A
C738        H741   1.082       .  S
C739        C740   1.372       .  A
C740        H742   1.083       .  S
N743        N744   1.328       .  A
N743        C747   1.345       .  A
N744        C745   1.345       .  A
C745        C746   1.380       .  A
C745        H748   1.081       .  S
C746        C747   1.384       .  A
C746       C1147   1.482       .  S
C747        H749   1.082       .  S
C750        C797   1.640       .  S
C750        C814   1.618       .  S
C750        C853   1.609       .  S
C750        C881   1.615       .  S
C751        C783   1.638       .  S
C751        C828   1.620       .  S
C751        C867   1.617       .  S
C751        C926   1.608       .  S
C752        C769   1.643       .  S
C752        C912   1.614       .  S
C752        C954   1.607       .  S
C752        C965   1.616       .  S
C753        C755   1.644       .  S
C753        C842   1.603       .  S
C753        C898   1.600       .  S
C753        C940   1.631       .  S
C754        C758   1.639       .  S
C754        C772   1.648       .  S
C754        C786   1.644       .  S
C754        C800   1.636       .  S
C755        C756   1.431       .  A
C755        C760   1.448       .  A
C756        C757   1.419       .  A
C756        C761   1.445       .  S
C757        C758   1.438       .  A
C757        C764   1.434       .  S
C758        C759   1.440       .  A
C759        C760   1.434       .  A
C759        C762   1.442       .  S
C760        C763   1.451       .  S
C761        N768   1.158       .  T
C762        N767   1.157       .  T
C763        N765   1.158       .  T
C764        N766   1.154       .  T
C769        C770   1.439       .  A
C769        C774   1.435       .  A
C770        C771   1.438       .  A
C770        C775   1.454       .  S
C771        C772   1.440       .  A
C771        C778   1.444       .  S
C772        C773   1.440       .  A
C773        C774   1.441       .  A
C773        C776   1.438       .  S
C774        C777   1.453       .  S
C775        N782   1.158       .  T
C776        N781   1.153       .  T
C777        N779   1.157       .  T
C778        N780   1.157       .  T
C783        C784   1.450       .  A
C783        C788   1.433       .  A
C784        C785   1.439       .  A
C784        C789   1.453       .  S
C785        C786   1.432       .  A
C785        C792   1.449       .  S
C786        C787   1.445       .  A
C787        C788   1.435       .  A
C787        C790   1.445       .  S
C788        C791   1.453       .  S
C789        N796   1.158       .  T
C790        N795   1.155       .  T
C791        N793   1.157       .  T
C792        N794   1.156       .  T
C797        C798   1.444       .  A
C797        C802   1.439       .  A
C798        C799   1.439       .  A
C798        C803   1.452       .  S
C799        C800   1.434       .  A
C799        C806   1.447       .  S
C800        C801   1.433       .  A
C801        C802   1.436       .  A
C801        C804   1.442       .  S
C802        C805   1.450       .  S
C803        N810   1.158       .  T
C804        N809   1.155       .  T
C805        N807   1.157       .  T
C806        N808   1.155       .  T
C811        C812   1.405       .  A
C811        C816   1.403       .  A
C812        C813   1.422       .  A
C812        C817   1.460       .  S
C813        C814   1.458       .  A
C813        C820   1.451       .  S
C814        C815   1.448       .  A
C815        C816   1.419       .  A
C815        C818   1.450       .  S
C816        C819   1.456       .  S
C817        N824   1.158       .  T
C818        N823   1.157       .  T
C819        N821   1.157       .  T
C820        N822   1.158       .  T
C825        C826   1.400       .  A
C825        C830   1.396       .  A
C826        C827   1.425       .  A
C826        C831   1.455       .  S
C827        C828   1.441       .  A
C827        C834   1.434       .  S
C828        C829   1.459       .  A
C829        C830   1.415       .  A
C829        C832   1.454       .  S
C830        C833   1.456       .  S
C831        N838   1.157       .  T
C832        N837   1.158       .  T
C833        N835   1.157       .  T
C834        N836   1.154       .  T
C839        C840   1.404       .  A
C839        C844   1.398       .  A
C840        C841   1.424       .  A
C840        C845   1.452       .  S
C841        C842   1.439       .  A
C841        C848   1.441       .  S
C842        C843   1.449       .  A
C843        C844   1.412       .  A
C843        C846   1.449       .  S
C844        C847   1.458       .  S
C845        N852   1.157       .  T
C846        N851   1.157       .  T
C847        N849   1.157       .  T
C848        N850   1.155       .  T
C853        C854   1.449       .  A
C853        C858   1.442       .  A
C854        C855   1.411       .  A
C854        C859   1.453       .  S
C855        C856   1.406       .  A
C855        C862   1.455       .  S
C856        C857   1.408       .  A
C857        C858   1.424       .  A
C857        C860   1.452       .  S
C858        C861   1.448       .  S
C859        N866   1.158       .  T
C860        N865   1.157       .  T
C861        N863   1.157       .  T
C862        N864   1.158       .  T
C867        C868   1.435       .  A
C867        C872   1.445       .  A
C868        C869   1.427       .  A
C868        C873   1.450       .  S
C869        C870   1.410       .  A
C869        C876   1.451       .  S
C870        C871   1.404       .  A
C871        C872   1.405       .  A
C871        C874   1.454       .  S
C872        C875   1.454       .  S
C873        N880   1.157       .  T
C874        N879   1.157       .  T
C875        N877   1.158       .  T
C876        N878   1.157       .  T
C881        C882   1.455       .  A
C881        C886   1.445       .  A
C882        C883   1.416       .  A
C882        C887   1.448       .  S
C883        C884   1.397       .  A
C883        C890   1.458       .  S
C884        C885   1.399       .  A
C885        C886   1.421       .  A
C885        C888   1.454       .  S
C886        C889   1.441       .  S
C887        N894   1.158       .  T
C888        N893   1.157       .  T
C889        N891   1.156       .  T
C890        N892   1.157       .  T
C895        C896   1.410       .  A
C895        C900   1.408       .  A
C896        C897   1.422       .  A
C896        C901   1.452       .  S
C897        C898   1.439       .  A
C897        C904   1.446       .  S
C898        C899   1.441       .  A
C899        C900   1.405       .  A
C899        C902   1.453       .  S
C900        C903   1.453       .  S
C901        N908   1.157       .  T
C902        N907   1.158       .  T
C903        N905   1.158       .  T
C904        N906   1.155       .  T
C909        C910   1.407       .  A
C909        C914   1.406       .  A
C910        C911   1.420       .  A
C910        C915   1.459       .  S
C911        C912   1.454       .  A
C911        C918   1.452       .  S
C912        C913   1.447       .  A
C913        C914   1.419       .  A
C913        C916   1.453       .  S
C914        C917   1.454       .  S
C915        N922   1.158       .  T
C916        N921   1.157       .  T
C917        N919   1.157       .  T
C918        N920   1.158       .  T
C923        C924   1.407       .  A
C923        C928   1.409       .  A
C924        C925   1.414       .  A
C924        C929   1.456       .  S
C925        C926   1.440       .  A
C925        C932   1.441       .  S
C926        C927   1.444       .  A
C927        C928   1.419       .  A
C927        C930   1.449       .  S
C928        C931   1.453       .  S
C929        N936   1.158       .  T
C930        N935   1.156       .  T
C931        N933   1.157       .  T
C932        N934   1.158       .  T
C937        C938   1.409       .  A
C937        C942   1.409       .  A
C938        C939   1.422       .  A
C938        C943   1.458       .  S
C939        C940   1.454       .  A
C939        C946   1.450       .  S
C940        C941   1.453       .  A
C941        C942   1.423       .  A
C941        C944   1.459       .  S
C942        C945   1.455       .  S
C943        N950   1.158       .  T
C944        N949   1.158       .  T
C945        N947   1.158       .  T
C946        N948   1.158       .  T
C951        C952   1.407       .  A
C951        C956   1.406       .  A
C952        C953   1.422       .  A
C952        C957   1.453       .  S
C953        C954   1.442       .  A
C953        C960   1.447       .  S
C954        C955   1.449       .  A
C955        C956   1.413       .  A
C955        C958   1.453       .  S
C956        C959   1.455       .  S
C957        N964   1.157       .  T
C958        N963   1.158       .  T
C959        N961   1.158       .  T
C960        N962   1.157       .  T
C965        C966   1.443       .  A
C965        C970   1.455       .  A
C966        C967   1.420       .  A
C966        C971   1.434       .  S
C967        C968   1.398       .  A
C967        C974   1.453       .  S
C968        C969   1.396       .  A
C969        C970   1.414       .  A
C969        C972   1.457       .  S
C970        C973   1.447       .  S
C971        N978   1.154       .  T
C972        N977   1.157       .  T
C973        N975   1.157       .  T
C974        N976   1.157       .  T
C979        C980   1.460       .  A
C979        C984   1.442       .  A
C980        C981   1.413       .  A
C980        C985   1.449       .  S
C981        C982   1.390       .  A
C981        C988   1.457       .  S
C982        C983   1.393       .  A
C983        C984   1.425       .  A
C983        C986   1.459       .  S
C984        C987   1.420       .  S
C985        N992   1.158       .  T
C986        N991   1.157   1_455  T
C987        N989   1.149       .  T
C988        N990   1.157       .  T
C993        C994   1.430       .  A
C993        C998   1.436       .  A
C994        C995   1.408       .  A
C994        C999   1.449       .  S
C995        C996   1.414       .  A
C995       C1002   1.453       .  S
C996        C997   1.418       .  A
C997        C998   1.419       .  A
C997       C1000   1.451   1_556  S
C998       C1001   1.453       .  S
C999       N1006   1.157       .  T
C1000      N1005   1.157       .  T
C1001      N1003   1.157       .  T
C1002      N1004   1.158       .  T
C1007      C1008   1.429       .  A
C1007      C1012   1.441       .  A
C1008      C1009   1.398       .  A
C1008      C1013   1.446       .  S
C1009      C1010   1.400       .  A
C1009      C1016   1.453       .  S
C1010      C1011   1.409   1_565  A
C1011      C1012   1.426   1_545  A
C1011      C1014   1.452       .  S
C1012      C1015   1.445   1_565  S
C1013      N1020   1.158       .  T
C1014      N1019   1.157       .  T
C1015      N1017   1.156       .  T
C1016      N1018   1.157       .  T
C1021      C1022   1.426   1_565  A
C1021      C1026   1.443   1_556  A
C1022      C1023   1.436   1_545  A
C1022      C1027   1.435       .  S
C1023      C1024   1.441       .  A
C1023      C1030   1.456       .  S
C1024      C1025   1.455       .  A
C1025      C1026   1.435   1_556  A
C1025      C1028   1.454   1_556  S
C1026      C1029   1.467       .  S
C1027      N1034   1.156       .  T
C1028      N1033   1.159       .  T
C1029      N1031   1.158       .  T
C1030      N1032   1.158       .  T
C1035      C1036   1.431       .  A
C1035      C1040   1.435       .  A
C1036      C1037   1.435       .  A
C1036      C1041   1.438       .  S
C1037      C1038   1.416       .  A
C1037      C1044   1.449       .  S
C1038      C1039   1.400       .  A
C1039      C1040   1.395       .  A
C1039      C1042   1.453       .  S
C1040      C1043   1.452       .  S
C1041      N1048   1.156       .  T
C1042      N1047   1.157       .  T
C1043      N1045   1.158       .  T
C1044      N1046   1.157   1_554  T
C1049      C1050   1.448       .  A
C1049      C1054   1.435       .  A
C1050      C1051   1.409       .  A
C1050      C1055   1.458       .  S
C1051      C1052   1.405       .  A
C1051      C1058   1.457       .  S
C1052      C1053   1.409   1_565  A
C1053      C1054   1.419   1_545  A
C1053      C1056   1.450       .  S
C1054      C1057   1.455   1_565  S
C1055      N1062   1.158       .  T
C1056      N1061   1.157       .  T
C1057      N1059   1.157       .  T
C1058      N1060   1.157       .  T
C1063      C1064   1.445       .  A
C1063      C1068   1.433       .  A
C1064      C1065   1.425       .  A
C1064      C1069   1.445       .  S
C1065      C1066   1.414       .  A
C1065      C1072   1.455       .  S
C1066      C1067   1.413       .  A
C1067      C1068   1.412       .  A
C1067      C1070   1.450       .  S
C1068      C1071   1.443       .  S
C1069      N1076   1.157       .  T
C1070      N1075   1.158       .  T
C1071      N1073   1.157       .  T
C1072      N1074   1.158       .  T
C1077      C1078   1.436   1_455  A
C1077      C1082   1.449   1_445  A
C1078      C1079   1.448   1_545  A
C1078      C1083   1.442   1_655  S
C1079      C1080   1.452       .  A
C1079      C1086   1.454   1_565  S
C1080      C1081   1.416       .  A
C1081      C1082   1.422       .  A
C1081      C1084   1.451       .  S
C1082      C1085   1.444   1_655  S
C1083      N1090   1.155       .  T
C1084      N1089   1.158   1_655  T
C1085      N1087   1.155   1_554  T
C1086      N1088   1.159       .  T
C1091      C1092   1.449       .  A
C1091      C1096   1.454       .  A
C1092      C1093   1.421       .  A
C1092      C1097   1.450       .  S
C1093      C1094   1.405       .  A
C1093      C1100   1.456       .  S
C1094      C1095   1.406       .  A
C1095      C1096   1.423       .  A
C1095      C1098   1.459       .  S
C1096      C1099   1.448       .  S
C1097      N1104   1.157       .  T
C1098      N1103   1.158       .  T
C1099      N1101   1.158       .  T
C1100      N1102   1.158       .  T
C1105      C1106   1.445       .  A
C1105      C1110   1.441       .  A
C1106      C1107   1.408       .  A
C1106      C1111   1.454       .  S
C1107      C1108   1.408       .  A
C1107      C1114   1.454       .  S
C1108      C1109   1.411   1_556  A
C1109      C1110   1.425   1_554  A
C1109      C1112   1.451       .  S
C1110      C1113   1.449       .  S
C1111      N1118   1.158       .  T
C1112      N1117   1.157       .  T
C1113      N1115   1.157   1_556  T
C1114      N1116   1.158       .  T
C1119      C1120   1.437       .  A
C1119      C1124   1.451       .  A
C1120      C1121   1.420       .  A
C1120      C1125   1.430   1_655  S
C1121      C1122   1.400       .  A
C1121      C1128   1.454   1_655  S
C1122      C1123   1.399       .  A
C1123      C1124   1.417       .  A
C1123      C1126   1.457       .  S
C1124      C1127   1.448       .  S
C1125      N1132   1.151       .  T
C1126      N1131   1.157       .  T
C1127      N1129   1.157       .  T
C1128      N1130   1.157       .  T
C1133      C1134   1.437   1_556  A
C1133      C1138   1.444       .  A
C1134      C1135   1.427   1_554  A
C1134      C1139   1.445       .  S
C1135      C1136   1.433       .  A
C1135      C1142   1.449       .  S
C1136      C1137   1.440       .  A
C1137      C1138   1.452       .  A
C1137      C1140   1.453       .  S
C1138      C1141   1.431   1_545  S
C1139      N1146   1.157       .  T
C1140      N1145   1.158       .  T
C1141      N1143   1.154       .  T
C1142      N1144   1.157       .  T
C1147      C1148   1.399       .  A
C1147      C1152   1.395       .  A
C1148      C1149   1.423       .  A
C1148      C1153   1.454   1_554  S
C1149      C1150   1.448       .  A
C1149      C1156   1.443       .  S
C1150      C1151   1.452       .  A
C1151      C1152   1.408       .  A
C1151      C1154   1.446       .  S
C1152      C1155   1.458       .  S
C1153      N1160   1.157       .  T
C1154      N1159   1.159       .  T
C1155      N1157   1.157       .  T
C1156      N1158   1.156       .  T
C1161      C1162   1.440       .  A
C1161      C1166   1.453       .  A
C1162      C1163   1.418       .  A
C1162      C1167   1.448       .  S
C1163      C1164   1.405       .  A
C1163      C1170   1.454       .  S
C1164      C1165   1.408       .  A
C1165      C1166   1.418       .  A
C1165      C1168   1.457       .  S
C1166      C1169   1.458       .  S
C1167      N1174   1.157       .  T
C1168      N1173   1.158       .  T
C1169      N1171   1.158       .  T
C1170      N1172   1.157       .  T
C1175      C1176   1.410       .  A
C1175      C1180   1.413       .  A
C1176      C1177   1.418       .  A
C1176      C1181   1.452       .  S
C1177      C1178   1.444       .  A
C1177      C1184   1.451       .  S
C1178      C1179   1.444       .  A
C1179      C1180   1.426       .  A
C1179      C1182   1.448       .  S
C1180      C1183   1.452       .  S
C1181      N1188   1.158       .  T
C1182      N1187   1.157       .  T
C1183      N1185   1.158       .  T
C1184      N1186   1.158       .  T
C1189      C1190   1.432       .  A
C1189      C1194   1.431       .  A
C1190      C1191   1.435       .  A
C1190      C1195   1.449       .  S
C1191      C1192   1.443       .  A
C1191      C1198   1.446       .  S
C1192      C1193   1.435       .  A
C1193      C1194   1.413       .  A
C1193      C1196   1.445       .  S
C1194      C1197   1.444       .  S
C1195      N1202   1.157   1_554  T
C1196      N1201   1.158       .  T
C1197      N1199   1.157       .  T
C1198      N1200   1.158       .  T
