geometry optimzed in LAMMPS
_audit_creation_date              2020-11-30 
_audit_creation_method            'lammps2cif' 
_symmetry_space_group_name_H-M    'P1' 
_symmetry_Int_Tables_number       1 
_symmetry_cell_setting            triclinic 
loop_ 
_symmetry_equiv_pos_as_xyz 
  x,y,z 
_cell_length_a                    34.25597838 
_cell_length_b                    34.2954176666955 
_cell_length_c                    26.122060137880393 
_cell_angle_alpha                 88.63078064906396 
_cell_angle_beta                  91.05402179193743 
_cell_angle_gamma                 92.03024782895343 
loop_ 
_atom_site_label 
_atom_site_type_symbol 
_atom_site_fract_x 
_atom_site_fract_y 
_atom_site_fract_z 
_atom_site_charge 
O1          O  0.25766984  0.18077642  0.37433782    -0.80100
O2          O  0.25185116  0.18806387  0.66737282    -0.81600
O3          O  0.33488412  0.16214730  0.52790560    -0.78700
O4          O  0.21478594  0.13030359  0.52235720    -0.77000
O5          O  0.15827406  0.16341027  0.51425649    -0.78800
O6          O  0.37309030  0.21794543  0.52669757    -0.79800
O7          O  0.26652617  0.14624141  0.60403146    -0.81100
O8          O  0.26811524  0.14037354  0.44375388    -0.81400
Eu9        Eu  0.26693331  0.17888132  0.52138428     2.39200
O10         O  0.22014646  0.20681435  0.57277171    -0.88900
O11         O  0.29962481  0.22332631  0.46643801    -0.92500
C12         C  0.26214505  0.14616297  0.39537591     1.02200
C13         C  0.25911420  0.15348059  0.65075458     1.02000
C14         C  0.36817073  0.18056778  0.52953242     1.02000
C15         C  0.17767705  0.13185650  0.51734214     0.99800
H16         H  0.31437130  0.21314746  0.59680272     0.29600
O17         O  0.29569951  0.22606274  0.57473433    -1.01300
H18         H  0.20799109  0.18531824  0.44409103     0.29600
O19         O  0.22153834  0.20527762  0.46358323    -1.03800
O20         O  0.24261755  0.32439572  0.65832435    -0.81000
O21         O  0.24963436  0.31691584  0.36468212    -0.80600
O22         O  0.36103948  0.27794704  0.60160689    -0.79000
O23         O  0.13870624  0.23504129  0.59412549    -0.82400
O24         O  0.14328815  0.23045521  0.43096796    -0.80200
O25         O  0.36492507  0.27188045  0.44086155    -0.78900
O26         O  0.28829275  0.37572428  0.51397808    -0.80400
O27         O  0.16741927  0.33900156  0.48120067    -0.82300
O28         O  0.34463863  0.34232311  0.51677833    -0.79000
O29         O  0.12958836  0.28349975  0.49374469    -0.81700
O30         O  0.31734246  0.26437982  0.66572902    -0.77500
O31         O  0.32385465  0.25549464  0.37423313    -0.77500
O32         O  0.18620265  0.24542963  0.36648353    -0.77100
O33         O  0.17975090  0.25071341  0.66104827    -0.80600
O34         O  0.22813788  0.36472571  0.59005955    -0.80100
O35         O  0.23969380  0.36096718  0.42772204    -0.78400
Eu36       Eu  0.24880078  0.25574131  0.62600562     2.39800
Eu37       Eu  0.25424277  0.25017981  0.40708556     2.39600
Eu38       Eu  0.32779479  0.27165261  0.51974811     2.38400
Eu39       Eu  0.17539083  0.23363518  0.51478346     2.39900
Eu40       Eu  0.23512867  0.32790671  0.51086696     2.39800
O41         O  0.20847291  0.27830783  0.46049471    -0.92800
O42         O  0.28042624  0.30076406  0.56877323    -0.91700
C43         C  0.23465822  0.35857884  0.63849111     1.02400
C44         C  0.24531101  0.35211839  0.38089613     1.01100
C45         C  0.35262087  0.27233839  0.64897393     1.00500
C46         C  0.14489494  0.24355757  0.64142863     1.02500
C47         C  0.15112327  0.23748307  0.38354440     1.01400
C48         C  0.35862927  0.26348733  0.39357911     1.00300
C49         C  0.32560357  0.37425505  0.51422257     1.00300
C50         C  0.13511701  0.31860451  0.47696571     1.02900
H51         H  0.29770686  0.31766576  0.44130190     0.30300
O52         O  0.28305063  0.29851726  0.46160491    -1.05000
H53         H  0.18327039  0.29736485  0.58337576     0.32400
O54         O  0.20315360  0.28337813  0.56649937    -1.07500
N55         N  0.52208351  0.01942236  0.48316503    -0.36600
N56         N  0.04857593  0.45163444  0.43561503    -0.57100
N57         N  0.47515104  0.44855484  0.36276534    -0.36600
N58         N  0.45720992  0.51984496  0.42127300    -0.57100
C59         C  0.05142024  0.00650890  0.51306849     0.27000
C60         C  0.50156990  0.04480887  0.50916168     0.27000
C61         C  0.99110044  0.41401198  0.36178019     0.27000
C62         C  0.43627708  0.44365458  0.36912524     0.27000
C63         C  0.08269438  0.96895766  0.44967814     0.35600
C64         C  0.05540531  0.43704518  0.38942509     0.35600
C65         C  0.45147418  0.05455362  0.44223429     0.35600
C66         C  0.42587065  0.51077029  0.39213669     0.35600
C67         C  0.04883607  0.02332046  0.56068365    -0.21800
C68         C  0.51658828  0.04762880  0.55857569    -0.21800
C69         C  0.96125103  0.38581681  0.35903534    -0.21800
C70         C  0.42595928  0.40412755  0.36697640    -0.21800
C71         C  0.11148931  0.96345905  0.41436240    -0.22900
C72         C  0.09438659  0.44354917  0.37719241    -0.22900
C73         C  0.41735632  0.06988982  0.42208617    -0.22900
C74         C  0.40099647  0.54177254  0.39071083    -0.22900
C75         C  0.08572559  0.99362314  0.49187466    -0.18200
C76         C  0.47198848  0.06714259  0.48654595    -0.18200
C77         C  0.41293226  0.47195963  0.39090403    -0.18200
C78         C  0.03105366  0.40712607  0.36994453    -0.18200
H79         H  0.06941405  0.02093813  0.59243609     0.14700
H80         H  0.50745292  0.06676361  0.58809649     0.14700
H81         H  0.96403735  0.35448459  0.35919338     0.14700
H82         H  0.39744380  0.39070498  0.37387219     0.14700
H83         H  0.14158281  0.97416966  0.41586469     0.13000
H84         H  0.10919894  0.43347340  0.34404383     0.12900
H85         H  0.40361511  0.09627024  0.43312378     0.13000
H86         H  0.37149813  0.54177085  0.37512623     0.12900
H87         H  0.52239385  0.01763345  0.44339859     0.26200
H88         H  0.49141949  0.47479616  0.36476503     0.26200
O89         O  0.50275921  0.44070603  0.86704187    -0.80100
O90         O  0.49746045  0.42521360  0.16095529    -0.81600
O91         O  0.07328957  0.40437702  0.02093054    -0.78700
O92         O  0.44965183  0.38345121  0.99335897    -0.77000
O93         O  0.39705900  0.42272852  0.99052049    -0.78800
O94         O  0.11324208  0.45855060  0.02903733    -0.79800
O95         O  0.00244041  0.38574353  0.09266655    -0.81100
O96         O  0.51004839  0.39501208  0.93185642    -0.81400
Eu97       Eu  0.50616424  0.42515592  0.01476261     2.39200
O98         O  0.46139634  0.45228804  0.07024326    -0.88900
O99         O  0.04092139  0.47129155  0.96424960    -0.92500
C100        C  0.50624116  0.40484359  0.88421174     1.02200
C101        C  0.99961892  0.39116988  0.14093767     1.02000
C102        C  0.10701212  0.42164165  0.02697546     1.02000
C103        C  0.41407912  0.39079476  0.98144158     0.99800
H104        H  0.05692330  0.45127881  0.09375203     0.29600
O105        O  0.03906008  0.46623502  0.07285923    -1.01300
H106        H  0.45160547  0.44567751  0.93692193     0.29600
O107        O  0.46525893  0.46192740  0.96148602    -1.03800
O108        O  0.49410335  0.06053836  0.17076968    -0.81000
O109        O  0.49973114  0.07690849  0.87416239    -0.80600
O110        O  0.10536277  0.51403450  0.10337751    -0.79000
O111        O  0.38440578  0.47980269  0.09712331    -0.82400
O112        O  0.38698831  0.99604358  0.93227786    -0.80200
O113        O  0.11101736  0.01475319  0.94276568    -0.78900
O114        O  0.04116582  0.11952909  0.04287676    -0.80400
O115        O  0.41698864  0.09579550  0.01327284    -0.82300
O116        O  0.09330866  0.08003997  0.04174543    -0.79000
O117        O  0.37675488  0.04155645  0.01534000    -0.81700
O118        O  0.06396150  0.50255408  0.16982541    -0.77500
O119        O  0.06862491  0.00773812  0.87475995    -0.77500
O120        O  0.43167328  0.00402875  0.86796751    -0.77100
O121        O  0.42776546  0.48988752  0.16380323    -0.80600
O122        O  0.48577496  0.10671482  0.10671237    -0.80100
O123        O  0.49125300  0.11645655  0.94217656    -0.78400
Eu124      Eu  0.49541229  0.49521792  0.12809548     2.39800
Eu125      Eu  0.49942995  0.00721838  0.90896334     2.39600
Eu126      Eu  0.07227085  0.51356479  0.02170597     2.38400
Eu127      Eu  0.41974439  0.48792723  0.01568111     2.39900
Eu128      Eu  0.48543998  0.07742425  0.02195040     2.39800
O129        O  0.45412717  0.03472890  0.96505486    -0.92800
O130        O  0.02746013  0.04118735  0.07373784    -0.91700
C131        C  0.49101094  0.09642766  0.15412155     1.02400
C132        C  0.49708507  0.11121845  0.89416613     1.01100
C133        C  0.09887277  0.50956353  0.15133493     1.00500
C134        C  0.39254078  0.48431790  0.14524478     1.02500
C135        C  0.39600421  0.00096172  0.88473829     1.01400
C136        C  0.10386286  0.01008244  0.89450985     1.00300
C137        C  0.07740446  0.11263701  0.05019561     1.00300
C138        C  0.38294802  0.07841692  0.01063432     1.02900
H139        H  0.04837844  0.06971872  0.95028988     0.30300
O140        O  0.03207863  0.05012978  0.96736792    -1.05000
H141        H  0.43341266  0.04396455  0.09342629     0.32400
O142        O  0.45203793  0.03064405  0.07344455    -1.07500
N143        N  0.24105201  0.20058459  0.96653300    -0.36600
N144        N  0.24297127  0.26684096  0.02600715    -0.57100
N145        N  0.27981404  0.30615700  0.94343853    -0.36600
N146        N  0.27763412  0.23565878  0.86856466    -0.57100
C147        C  0.20799932  0.19424569  0.99287886     0.27000
C148        C  0.23899344  0.17762192  0.92560757     0.27000
C149        C  0.25896168  0.33477533  0.96259222     0.27000
C150        C  0.28383767  0.31406997  0.89301767     0.27000
C151        C  0.22145176  0.24418905  0.05780054     0.35600
C152        C  0.24630691  0.30234620  0.04594350     0.35600
C153        C  0.28841029  0.19830010  0.86631168     0.35600
C154        C  0.30871710  0.25797046  0.85351981     0.35600
C155        C  0.18466270  0.16608860  0.96818887    -0.21800
C156        C  0.20478702  0.15516759  0.92581710    -0.21800
C157        C  0.25093513  0.36213600  0.92405608    -0.21800
C158        C  0.26714904  0.34909389  0.88016682    -0.21800
C159        C  0.21437214  0.26387893  0.10206616    -0.22900
C160        C  0.23056676  0.30089867  0.09477654    -0.22900
C161        C  0.32464661  0.19675714  0.84363352    -0.22900
C162        C  0.33775982  0.23494194  0.83641741    -0.22900
C163        C  0.20025988  0.21147630  0.04020959    -0.18200
C164        C  0.27239566  0.16914025  0.89939799    -0.18200
C165        C  0.31315438  0.29760045  0.86538502    -0.18200
C166        C  0.24432754  0.33497345  0.01274552    -0.18200
H167        H  0.15694404  0.15339104  0.98042092     0.14700
H168        H  0.19651315  0.13185009  0.90014638     0.14700
H169        H  0.23525112  0.38879323  0.92734749     0.14700
H170        H  0.26823877  0.36452213  0.84378706     0.14700
H171        H  0.19541373  0.25441175  0.13299528     0.13000
H172        H  0.22548765  0.32544779  0.11875554     0.12900
H173        H  0.34205751  0.17124766  0.84014754     0.13000
H174        H  0.36676505  0.24473674  0.82582168     0.12900
H175        H  0.26632148  0.21591764  0.97824956     0.26200
H176        H  0.29307303  0.28348073  0.96376297     0.26200
C177        C  0.50036104  0.24433712  0.26731199    -0.02400
C178        C  0.24938540  0.50291815  0.26754589    -0.02400
C179        C  0.50181011  0.25797760  0.76713008    -0.02400
C180        C  0.24612458  0.00203746  0.76557806    -0.02400
C181        C  0.13593921  0.51246661  0.18392594    -0.05400
C182        C  0.17157675  0.01872409  0.15868924    -0.32800
C183        C  0.20786893  0.01916937  0.18419076     0.36400
C184        C  0.21048932  0.51105880  0.23701859    -0.05800
C185        C  0.17446400  0.51023631  0.26376980    -0.32700
C186        C  0.13773279  0.50952883  0.23778485     0.36300
H187        H  0.17219551  0.02341332  0.11758990     0.16700
O188        O  0.24060892  0.02786775  0.15608796    -0.60200
H189        H  0.17482114  0.50649416  0.30507375     0.16700
O190        O  0.10421827  0.50510957  0.26550773    -0.60300
H191        H  0.09763672  0.47671454  0.26569518     0.43700
H192        H  0.23801431  0.05514719  0.14332170     0.43600
C193        C  0.28728399  0.49798170  0.23483255    -0.05400
C194        C  0.32384097  0.51576735  0.24947114    -0.32800
C195        C  0.35853808  0.50973698  0.22304758     0.36400
C196        C  0.35823041  0.48550893  0.18025752    -0.05800
C197        C  0.32302891  0.96541970  0.16850859    -0.32700
C198        C  0.28845197  0.97024069  0.19595039     0.36300
H199        H  0.32634265  0.53410092  0.28252602     0.16700
O200        O  0.39231176  0.52908900  0.23840177    -0.60200
H201        H  0.32233161  0.94517311  0.13726443     0.16700
O202        O  0.25625324  0.94687498  0.18452736    -0.60300
H203        H  0.24975783  0.95216583  0.14791918     0.43700
H204        H  0.40302979  0.51287690  0.26693909     0.43600
C205        C  0.49782570  0.35424292  0.17349484    -0.05400
C206        C  0.48989726  0.31796733  0.15029285    -0.32800
C207        C  0.49032775  0.28228517  0.17817463     0.36400
C208        C  0.49928913  0.28177478  0.23146608    -0.05800
C209        C  0.00509527  0.31885072  0.25464197    -0.32700
C210        C  0.00506289  0.35431368  0.22663982     0.36300
H211        H  0.48271325  0.31699972  0.10976534     0.16700
O212        O  0.47861221  0.24889028  0.15342255    -0.60200
H213        H  0.01065486  0.32005476  0.29550958     0.16700
O214        O  0.01306348  0.38842639  0.25159602    -0.60300
H215        H  0.98726730  0.39994967  0.25626871     0.43700
H216        H  0.49586852  0.24712017  0.12353248     0.43600
C217        C  0.49631587  0.12978313  0.18968872    -0.05400
C218        C  0.52474414  0.15890409  0.17779730    -0.32800
C219        C  0.52682919  0.19484353  0.20288716     0.36400
C220        C  0.49860465  0.20378968  0.23967322    -0.05800
C221        C  0.97178000  0.17301395  0.25341469    -0.32700
C222        C  0.97036382  0.13675734  0.22876673     0.36300
H223        H  0.54536610  0.15396376  0.14790461     0.16700
O224        O  0.55678926  0.22115776  0.19141516    -0.60200
H225        H  0.95186059  0.17613430  0.28449995     0.16700
O226        O  0.94274606  0.10878250  0.24273300    -0.60300
H227        H  0.95595689  0.09200111  0.26868121     0.43700
H228        H  0.55709352  0.22434391  0.15358415     0.43600
C229        C  0.14125001  0.39788405  0.02915649    -0.05400
C230        C  0.14101096  0.36504103  0.99868039    -0.32800
C231        C  0.17482886  0.34503655  0.99304703     0.36400
C232        C  0.20944294  0.35766357  0.01860274    -0.05800
C233        C  0.20958641  0.38933897  0.05108378    -0.32700
C234        C  0.17549419  0.40977290  0.05637323     0.36300
H235        H  0.11505996  0.35594277  0.97711188     0.16700
O236        O  0.17443700  0.31436916  0.96017819    -0.60200
H237        H  0.23597717  0.39819537  0.07185446     0.16700
O238        O  0.17559873  0.44073958  0.08867581    -0.60300
H239        H  0.19031830  0.46218044  0.07059760     0.43700
H240        H  0.17331751  0.29057215  0.98231551     0.43600
C241        C  0.39368452  0.36372077  0.94718809    -0.05400
C242        C  0.38109658  0.37801778  0.89902811    -0.32800
C243        C  0.36085522  0.35346294  0.86489431     0.36400
C244        C  0.35194457  0.31465138  0.87993105    -0.05800
C245        C  0.36962481  0.29950505  0.92493286    -0.32700
C246        C  0.39054078  0.32376101  0.95847436     0.36300
H247        H  0.38625134  0.40847336  0.88836805     0.16700
O248        O  0.34714553  0.36793079  0.81871461    -0.60200
H249        H  0.36267924  0.27022665  0.93777260     0.16700
O250        O  0.40444263  0.30890501  0.00421238    -0.60300
H251        H  0.43036347  0.29872956  0.99643416     0.43700
H252        H  0.33128341  0.39059239  0.82660239     0.43600
C253        C  0.34953051  0.10194657  0.99492377    -0.05400
C254        C  0.35594284  0.14213068  0.98901180    -0.32800
C255        C  0.33154125  0.16394001  0.95760013     0.36400
C256        C  0.29961251  0.14574061  0.93142542    -0.05800
C257        C  0.28984198  0.10664176  0.94356924    -0.32700
C258        C  0.31436698  0.08465270  0.97537585     0.36300
H259        H  0.38144769  0.15660833  0.00611807     0.16700
O260        O  0.33904187  0.20327269  0.95333562    -0.60200
H261        H  0.26334006  0.09307223  0.92801771     0.16700
O262        O  0.30491317  0.04587712  0.98400085    -0.60300
H263        H  0.28978863  0.04494108  0.01604098     0.43700
H264        H  0.36498430  0.20595254  0.93706220     0.43600
C265        C  0.10319307  0.14419380  0.06846886    -0.05400
C266        C  0.09733440  0.18238858  0.05072300    -0.32800
C267        C  0.12871451  0.20924760  0.05042284     0.36400
C268        C  0.16564612  0.19710498  0.06759958    -0.05800
C269        C  0.16893362  0.16217168  0.09549023    -0.32700
C270        C  0.13750443  0.13554580  0.09638153     0.36300
H271        H  0.07036451  0.18989499  0.03114667     0.16700
O272        O  0.12477052  0.24421687  0.02475722    -0.60200
H273        H  0.19718214  0.15323052  0.10994197     0.16700
O274        O  0.14229428  0.09946911  0.11880330    -0.60300
H275        H  0.13314165  0.10181845  0.15435049     0.43700
H276        H  0.12371189  0.26386815  0.05188530     0.43600
C277        C  0.28704130  0.00202766  0.79517030    -0.05400
C278        C  0.31765611  0.47704297  0.78253099    -0.32800
C279        C  0.35438141  0.47809344  0.80823547     0.36400
C280        C  0.36169829  0.00404407  0.84857195    -0.05800
C281        C  0.33299505  0.03078437  0.85878497    -0.32700
C282        C  0.29705400  0.03096718  0.83172457     0.36300
H283        H  0.31417487  0.45706666  0.75134368     0.16700
O284        O  0.38218457  0.45257128  0.79493445    -0.60200
H285        H  0.33864704  0.05200362  0.88816008     0.16700
O286        O  0.27116663  0.05898877  0.84278941    -0.60300
H287        H  0.28305945  0.08391426  0.82941503     0.43700
H288        H  0.40025225  0.46794681  0.77238373     0.43600
C289        C  0.13919998  0.00586777  0.86102306    -0.05400
C290        C  0.17540123  0.99586710  0.88369380    -0.32800
C291        C  0.20961224  0.99227326  0.85474596     0.36400
C292        C  0.20911566  0.00014505  0.80107498    -0.05800
C293        C  0.17170915  0.50629175  0.77860920    -0.32700
C294        C  0.13761125  0.50966925  0.80761647     0.36300
H295        H  0.17727128  0.98992973  0.92457018     0.16700
O296        O  0.24221911  0.97808275  0.87901914    -0.60200
H297        H  0.16927454  0.51069620  0.73751701     0.16700
O298        O  0.10342030  0.51879982  0.78278380    -0.60300
H299        H  0.09191695  0.49352252  0.77113143     0.43700
H300        H  0.24885332  0.99623163  0.90715488     0.43600
C301        C  0.50170739  0.14785764  0.86122205    -0.05400
C302        C  0.49660237  0.14718529  0.80779472    -0.32800
C303        C  0.49827985  0.18196357  0.77755046     0.36400
C304        C  0.50359202  0.21924388  0.80051011    -0.05800
C305        C  0.01280823  0.21892103  0.85318441    -0.32700
C306        C  0.01178255  0.18419120  0.88294267     0.36300
H307        H  0.49056693  0.11966427  0.78922723     0.16700
O308        O  0.49358421  0.17939398  0.72537654    -0.60200
H309        H  0.02123571  0.24562213  0.87221966     0.16700
O310        O  0.02202520  0.18629197  0.93386209    -0.60300
H311        H  0.99910574  0.19694239  0.95069270     0.43700
H312        H  0.46681597  0.16830474  0.71931242     0.43600
C313        C  0.50315766  0.37064327  0.84945826    -0.05400
C314        C  0.47913909  0.33854496  0.86473707    -0.32800
C315        C  0.47793593  0.30323768  0.83856204     0.36400
C316        C  0.50371206  0.29716887  0.79783017    -0.05800
C317        C  0.02605755  0.33077881  0.78106350    -0.32700
C318        C  0.02591987  0.36676179  0.80654655     0.36300
H319        H  0.46082682  0.34079744  0.89773530     0.16700
O320        O  0.45165348  0.27450939  0.85408634    -0.60200
H321        H  0.04365842  0.32971815  0.74723213     0.16700
O322        O  0.04886003  0.39766783  0.78910170    -0.60300
H323        H  0.07504482  0.39369532  0.80478334     0.43700
H324        H  0.42577515  0.28375767  0.84260415     0.43600
C325        C  0.38763784  0.27244394  0.68428342    -0.05400
C326        C  0.39083180  0.24386529  0.72290220    -0.32800
C327        C  0.42644143  0.23790808  0.74968105     0.36400
C328        C  0.46137952  0.26024144  0.73690998    -0.05800
C329        C  0.45679869  0.29043636  0.69966320    -0.32700
C330        C  0.42106981  0.29645824  0.67370768     0.36300
H331        H  0.36560324  0.22514699  0.73179233     0.16700
O332        O  0.42540611  0.21213787  0.79069172    -0.60200
H333        H  0.48145520  0.30976329  0.69033713     0.16700
O334        O  0.41940206  0.32578075  0.63714568    -0.60300
H335        H  0.41244039  0.34928676  0.65590103     0.43700
H336        H  0.41553073  0.18674544  0.77728071     0.43600
C337        C  0.03916865  0.25609736  0.73304691    -0.05400
C338        C  0.03689530  0.25009181  0.67992252    -0.32800
C339        C  0.07049082  0.24598632  0.65046905     0.36400
C340        C  0.10859309  0.24694473  0.67333071    -0.05800
C341        C  0.11117891  0.25274013  0.72631643    -0.32700
C342        C  0.07747796  0.25737178  0.75577198     0.36300
H343        H  0.00890147  0.24742396  0.66040992     0.16700
O344        O  0.06532678  0.24201907  0.59862014    -0.60200
H345        H  0.13955236  0.25385953  0.74532981     0.16700
O346        O  0.08235581  0.26267910  0.80742708    -0.60300
H347        H  0.09402048  0.28939656  0.81086626     0.43700
H348        H  0.05699029  0.21431915  0.59396686     0.43600
C349        C  0.25800312  0.11780070  0.68494825    -0.05400
C350        C  0.28047816  0.08601965  0.67178497    -0.32800
C351        C  0.27632331  0.04929259  0.69632782     0.36400
C352        C  0.24820665  0.04228104  0.73491802    -0.05800
C353        C  0.22668568  0.07514723  0.74919352    -0.32700
C354        C  0.23108720  0.11199096  0.72446678     0.36300
H355        H  0.30130189  0.08935941  0.64118904     0.16700
O356        O  0.29900264  0.01979419  0.68060667    -0.60200
H357        H  0.20698715  0.07337642  0.78099863     0.16700
O358        O  0.20821173  0.14177190  0.73871411    -0.60300
H359        H  0.18501612  0.14039705  0.71544544     0.43700
H360        H  0.32601752  0.02699168  0.69202074     0.43600
C361        C  0.23405000  0.39415711  0.67223505    -0.05400
C362        C  0.22545086  0.43102886  0.65044611    -0.32800
C363        C  0.22791588  0.46569055  0.67890520     0.36400
C364        C  0.24014916  0.46495086  0.73128241    -0.05800
C365        C  0.24472655  0.42729815  0.75399226    -0.32700
C366        C  0.24288695  0.39279315  0.72522162     0.36300
H367        H  0.21668352  0.43338206  0.61047221     0.16700
O368        O  0.21567075  0.49945439  0.65556160    -0.60200
H369        H  0.25166235  0.42480938  0.79451528     0.16700
O370        O  0.25089659  0.35801618  0.74936397    -0.60300
H371        H  0.22533740  0.34744490  0.76165627     0.43700
H372        H  0.23282656  0.50412492  0.62569228     0.43600
C373        C  0.45670067  0.10003955  0.51366072    -0.05400
C374        C  0.42747252  0.09185277  0.54923476    -0.32800
C375        C  0.40015819  0.11972267  0.55882286     0.36400
C376        C  0.40255478  0.15630481  0.53300884    -0.05800
C377        C  0.43530750  0.16623517  0.50331089    -0.32700
C378        C  0.46259463  0.13813132  0.49370636     0.36300
H379        H  0.42317645  0.06252028  0.56500777     0.16700
O380        O  0.36971897  0.11012072  0.59071282    -0.60200
H381        H  0.43767011  0.19427137  0.48350548     0.16700
O382        O  0.49186812  0.14653822  0.45966945    -0.60300
H383        H  0.51582574  0.15048116  0.48108393     0.43700
H384        H  0.35251650  0.09154421  0.57141936     0.43600
C385        C  0.15665499  0.09476492  0.51059161    -0.05400
C386        C  0.13401220  0.09017434  0.46610627    -0.32800
C387        C  0.11509594  0.05467799  0.45634817     0.36400
C388        C  0.11730425  0.02368151  0.49269853    -0.05800
C389        C  0.14162124  0.02755449  0.53610884    -0.32700
C390        C  0.16202529  0.06288459  0.54464450     0.36300
H391        H  0.13103548  0.11422354  0.43876417     0.16700
O392        O  0.09126852  0.05169422  0.41369046    -0.60200
H393        H  0.14288320  0.00413353  0.56461832     0.16700
O394        O  0.18492311  0.06690361  0.58792893    -0.60300
H395        H  0.21182954  0.06202227  0.57692174     0.43700
H396        H  0.10892899  0.04630518  0.38523812     0.43600
C397        C  0.10355099  0.33439211  0.44516729    -0.05400
C398        C  0.06555696  0.33533994  0.46355395    -0.32800
C399        C  0.03640445  0.35294760  0.43376190     0.36400
C400        C  0.04510113  0.36792100  0.38413868    -0.05800
C401        C  0.08032503  0.35807123  0.36219108    -0.32700
C402        C  0.11057647  0.34457765  0.39361739     0.36300
H403        H  0.05932995  0.32548610  0.50236841     0.16700
O404        O  0.00139323  0.35996448  0.45581027    -0.60200
H405        H  0.08706468  0.36831794  0.32367316     0.16700
O406        O  0.14746341  0.34357131  0.37445450    -0.60300
H407        H  0.15933923  0.36978498  0.38121369     0.43700
H408        H  0.00678355  0.38240297  0.47843659     0.43600
C409        C  0.34773179  0.41131480  0.50429224    -0.05400
C410        C  0.38854194  0.41170243  0.50819018    -0.32800
C411        C  0.41058518  0.43634514  0.47601092     0.36400
C412        C  0.39146993  0.45841915  0.43729452    -0.05800
C413        C  0.35176931  0.46509558  0.44227813    -0.32700
C414        C  0.32978756  0.44245743  0.47727034     0.36300
H415        H  0.40324718  0.39022897  0.53195795     0.14100
O416        O  0.45054727  0.43523160  0.47850995    -0.60200
H417        H  0.33715453  0.48490387  0.41607257     0.16700
O418        O  0.29011968  0.44665108  0.47769461    -0.60300
H419        H  0.28519697  0.46048573  0.50971715     0.43700
H420        H  0.45910409  0.45825140  0.49863003     0.43600
C421        C  0.11567394  0.23712505  0.34870227    -0.05400
C422        C  0.08324537  0.21284799  0.36216422    -0.32800
C423        C  0.04663156  0.21576817  0.33737232     0.36400
C424        C  0.04056801  0.24387392  0.29766665    -0.05800
C425        C  0.07411868  0.26702028  0.28271169    -0.32700
C426        C  0.11086153  0.26384969  0.30758874     0.36300
H427        H  0.08604096  0.19148794  0.39314284     0.16700
O428        O  0.01692726  0.19024141  0.35184669    -0.60200
H429        H  0.07283606  0.28720257  0.25039584     0.16700
O430        O  0.14130410  0.28825835  0.29253223    -0.60300
H431        H  0.15463837  0.27406010  0.26564180     0.43700
H432        H  0.00940502  0.19841184  0.38633537     0.43600
C433        C  0.39465347  0.26131665  0.36096249    -0.05400
C434        C  0.39147404  0.25042870  0.30959475    -0.32800
C435        C  0.42481245  0.24562868  0.27973235     0.36400
C436        C  0.46334819  0.24918102  0.30128619    -0.05800
C437        C  0.46632891  0.26232074  0.35199029    -0.32700
C438        C  0.43303364  0.26828748  0.38142042     0.36300
H439        H  0.36287096  0.24559508  0.29206058     0.16700
O440        O  0.41922933  0.23621803  0.22934382    -0.60200
H441        H  0.49465342  0.26914584  0.36913636     0.16700
O442        O  0.43871076  0.28219383  0.42991568    -0.60300
H443        H  0.44828209  0.25988721  0.45082838     0.43700
H444        H  0.41094913  0.26058964  0.21176121     0.43600
C445        C  0.24864314  0.38636872  0.34546609    -0.05400
C446        C  0.21900793  0.39468286  0.31025865    -0.32800
C447        C  0.21763133  0.43138654  0.28508838     0.36400
C448        C  0.24563997  0.46233818  0.29720498    -0.05800
C449        C  0.27642718  0.45213510  0.33121764    -0.32700
C450        C  0.27848107  0.41464595  0.35364828     0.36300
H451        H  0.19670370  0.37248259  0.30180072     0.16700
O452        O  0.19096615  0.43462520  0.24552947    -0.60200
H453        H  0.30001422  0.47310502  0.33889988     0.16700
O454        O  0.31050394  0.40523805  0.38280392    -0.60300
H455        H  0.32789598  0.39217268  0.35917546     0.43700
H456        H  0.16487219  0.42991236  0.26088288     0.43600
C457        C  0.25900599  0.10975972  0.36345022    -0.05400
C458        C  0.26444652  0.11171469  0.31045468    -0.32800
C459        C  0.26185295  0.07793430  0.28046675     0.36400
C460        C  0.25395962  0.04001686  0.30273092    -0.05800
C461        C  0.24759975  0.03842816  0.35592781    -0.32700
C462        C  0.24968317  0.07235912  0.38574430     0.36300
H463        H  0.27093716  0.13968876  0.29181390     0.16700
O464        O  0.26677865  0.08247721  0.22869032    -0.60200
H465        H  0.23946221  0.01102665  0.37482372     0.16700
O466        O  0.24132194  0.06850211  0.43681033    -0.60300
H467        H  0.21247578  0.06526537  0.43808217     0.43700
H468        H  0.29456254  0.09078287  0.22419292     0.43600
O469        O  0.25794471  0.68040437  0.37432587    -0.80100
O470        O  0.25192211  0.68795895  0.66733868    -0.81600
O471        O  0.33483467  0.66173090  0.52708066    -0.78700
O472        O  0.21486947  0.62982325  0.52289369    -0.77000
O473        O  0.15846597  0.66309055  0.51486092    -0.78800
O474        O  0.37305301  0.71749049  0.52593685    -0.79800
O475        O  0.26695182  0.64602561  0.60425129    -0.81100
O476        O  0.26816320  0.63995979  0.44378051    -0.81400
Eu477      Eu  0.26692820  0.67846164  0.52139470     2.39200
O478        O  0.22023551  0.70648933  0.57281048    -0.88900
O479        O  0.29958570  0.72285283  0.46636628    -0.92500
C480        C  0.26238086  0.64579357  0.39537348     1.02200
C481        C  0.25937547  0.65338093  0.65090392     1.02000
C482        C  0.36812803  0.68011643  0.52852735     1.02000
C483        C  0.17775910  0.63148307  0.51809154     0.99800
H484        H  0.31443747  0.71273393  0.59672119     0.29600
O485        O  0.29573710  0.72565029  0.57469385    -1.01300
H486        H  0.20800234  0.68485943  0.44406289     0.29600
O487        O  0.22156277  0.70484309  0.46350740    -1.03800
O488        O  0.24293271  0.82431265  0.65784084    -0.81000
O489        O  0.24994760  0.81655292  0.36440419    -0.80600
O490        O  0.36118409  0.77734559  0.60131380    -0.79000
O491        O  0.13865685  0.73444569  0.59398254    -0.82400
O492        O  0.14341533  0.73013996  0.43111335    -0.80200
O493        O  0.36514782  0.77150350  0.44097677    -0.78900
O494        O  0.28834332  0.87523726  0.51351955    -0.80400
O495        O  0.16710222  0.83840792  0.48145857    -0.82300
O496        O  0.34460742  0.84169985  0.51658274    -0.79000
O497        O  0.12936660  0.78289952  0.49444032    -0.81700
O498        O  0.31745616  0.76408987  0.66548056    -0.77500
O499        O  0.32407622  0.75499893  0.37440731    -0.77500
O500        O  0.18623316  0.74517884  0.36654742    -0.77100
O501        O  0.17970348  0.75040533  0.66078508    -0.80600
O502        O  0.22829846  0.86459224  0.58958282    -0.80100
O503        O  0.23957872  0.86055727  0.42735238    -0.78400
Eu504      Eu  0.24886505  0.75551945  0.62585860     2.39800
Eu505      Eu  0.25432147  0.74978037  0.40697612     2.39600
Eu506      Eu  0.32775930  0.77115717  0.51958773     2.38400
Eu507      Eu  0.17551417  0.73326344  0.51482836     2.39900
Eu508      Eu  0.23505958  0.82754807  0.51056622     2.39800
O509        O  0.20844894  0.77788916  0.46029132    -0.92800
O510        O  0.28040130  0.80041749  0.56845294    -0.91700
C511        C  0.23495316  0.85848952  0.63798738     1.02400
C512        C  0.24542560  0.85175230  0.38056726     1.01100
C513        C  0.35275386  0.77190090  0.64869851     1.00500
C514        C  0.14484170  0.74308771  0.64123177     1.02500
C515        C  0.15117981  0.73725727  0.38370337     1.01400
C516        C  0.35885856  0.76304690  0.39372727     1.00300
C517        C  0.32564952  0.87365592  0.51384337     1.00300
C518        C  0.13476972  0.81799480  0.47759093     1.02900
H519        H  0.29772518  0.81724678  0.44113141     0.30300
O520        O  0.28305520  0.79811552  0.46144169    -1.05000
H521        H  0.18329284  0.79705629  0.58327164     0.32400
O522        O  0.20319200  0.78309539  0.56639512    -1.07500
N523        N  0.52336305  0.52051355  0.48051841    -0.36600
N524        N  0.04870022  0.95149862  0.43451594    -0.57100
N525        N  0.47561291  0.94914424  0.36274456    -0.36600
N526        N  0.45643283  0.01937033  0.42268795    -0.57100
C527        C  0.05036479  0.50577314  0.51545667     0.27000
C528        C  0.50284629  0.54570807  0.50678663     0.27000
C529        C  0.99037967  0.91307438  0.36254718     0.27000
C530        C  0.43663074  0.94400861  0.36781070     0.27000
C531        C  0.08235008  0.46904216  0.45165447     0.35600
C532        C  0.05502767  0.93622819  0.38858775     0.35600
C533        C  0.45259255  0.55530297  0.44019821     0.35600
C534        C  0.42553764  0.01058540  0.39260808     0.35600
C535        C  0.04772458  0.52262414  0.56303848    -0.21800
C536        C  0.51766752  0.54804486  0.55634752    -0.21800
C537        C  0.96036397  0.88499306  0.36092378    -0.21800
C538        C  0.42653271  0.90450574  0.36429945    -0.21800
C539        C  0.11152025  0.46408642  0.41667408    -0.22900
C540        C  0.09389118  0.94247622  0.37558961    -0.22900
C541        C  0.41837887  0.57057730  0.42025933    -0.22900
C542        C  0.40047361  0.04143910  0.39149952    -0.22900
C543        C  0.08486934  0.49344007  0.49414496    -0.18200
C544        C  0.47317815  0.56799547  0.48439413    -0.18200
C545        C  0.41286902  0.97175000  0.39004528    -0.18200
C546        C  0.03037576  0.90610910  0.37018507    -0.18200
H547        H  0.06848957  0.52058251  0.59462944     0.14700
H548        H  0.50839327  0.56685256  0.58615423     0.14700
H549        H  0.96299567  0.85364053  0.36157612     0.14700
H550        H  0.39797852  0.89085221  0.37008301     0.14700
H551        H  0.14155829  0.47491035  0.41884957     0.13000
H552        H  0.10833088  0.93194446  0.34241520     0.12900
H553        H  0.40486092  0.59715260  0.43100765     0.13000
H554        H  0.37116359  0.04151877  0.37529363     0.12900
H555        H  0.52369241  0.51894236  0.44070935     0.26200
H556        H  0.49175148  0.97537592  0.36598596     0.26200
O557        O  0.50257703  0.94078235  0.86746458    -0.80100
O558        O  0.49731897  0.92514996  0.16115757    -0.81600
O559        O  0.07376161  0.90497623  0.02165577    -0.78700
O560        O  0.44941911  0.88350852  0.99375139    -0.77000
O561        O  0.39683718  0.92278879  0.99105916    -0.78800
O562        O  0.11381680  0.95911089  0.02941781    -0.79800
O563        O  0.00233536  0.88543768  0.09221915    -0.81100
O564        O  0.50994010  0.89504173  0.93220848    -0.81400
Eu565      Eu  0.50600785  0.92516363  0.01504062     2.39200
O566        O  0.46127653  0.95222787  0.07067792    -0.88900
O567        O  0.04130986  0.97129440  0.96403404    -0.92500
C568        C  0.50611994  0.90492028  0.88459302     1.02200
C569        C  0.99942264  0.89087035  0.14048493     1.02000
C570        C  0.10750478  0.92221762  0.02769352     1.02000
C571        C  0.41384334  0.89087541  0.98187510     0.99800
H572        H  0.05707344  0.95142275  0.09370976     0.29600
O573        O  0.03925958  0.96633604  0.07268608    -1.01300
H574        H  0.45137111  0.94568144  0.93724627     0.29600
O575        O  0.46504910  0.96192201  0.96180125    -1.03800
O576        O  0.49396304  0.56085567  0.16976016    -0.81000
O577        O  0.50012759  0.57684070  0.87365693    -0.80600
O578        O  0.10516098  0.01421089  0.10362844    -0.79000
O579        O  0.38431442  0.98012424  0.09762729    -0.82400
O580        O  0.38710458  0.49598827  0.93190974    -0.80200
O581        O  0.11084961  0.51434577  0.94310944    -0.78900
O582        O  0.04094002  0.61959366  0.04288972    -0.80400
O583        O  0.41734658  0.59615074  0.01271503    -0.82300
O584        O  0.09304295  0.58000904  0.04187896    -0.79000
O585        O  0.37715347  0.54189536  0.01487881    -0.81700
O586        O  0.06377192  0.00254605  0.17003497    -0.77500
O587        O  0.06841362  0.50743754  0.87513624    -0.77500
O588        O  0.43184274  0.50398783  0.86764923    -0.77100
O589        O  0.42767112  0.99027317  0.16429526    -0.80600
O590        O  0.48543282  0.60699172  0.10569484    -0.80100
O591        O  0.49154159  0.61633033  0.94167602    -0.78400
Eu592      Eu  0.49539197  0.99516225  0.12847992     2.39800
Eu593      Eu  0.49965807  0.50715035  0.90859255     2.39600
Eu594      Eu  0.07252508  0.01368275  0.02155990     2.38400
Eu595      Eu  0.41963831  0.98792901  0.01613466     2.39900
Eu596      Eu  0.48553690  0.57731808  0.02137645     2.39800
O597        O  0.45421121  0.53467615  0.96447079    -0.92800
O598        O  0.02721595  0.54117058  0.07385894    -0.91700
C599        C  0.49071862  0.59672121  0.15307080     1.02400
C600        C  0.49747256  0.61114203  0.89369386     1.01100
C601        C  0.09865232  0.00967045  0.15158662     1.00500
C602        C  0.39242625  0.98476878  0.14572924     1.02500
C603        C  0.39615984  0.50092706  0.88439854     1.01400
C604        C  0.10367818  0.50966426  0.89487805     1.00300
C605        C  0.07717464  0.61265629  0.05024388     1.00300
C606        C  0.38333131  0.57876983  0.01016097     1.02900
H607        H  0.04799410  0.56968222  0.95057771     0.30300
O608        O  0.03171003  0.55008851  0.96766883    -1.05000
H609        H  0.43341217  0.54395627  0.09296763     0.32400
O610        O  0.45206492  0.53064790  0.07300529    -1.07500
N611        N  0.24117261  0.70060638  0.96647872    -0.36600
N612        N  0.24287571  0.76664455  0.02596616    -0.57100
N613        N  0.28019984  0.80641483  0.94383189    -0.36600
N614        N  0.27766846  0.73576623  0.86809682    -0.57100
C615        C  0.20851239  0.69360919  0.99348571     0.27000
C616        C  0.23915724  0.67766024  0.92552729     0.27000
C617        C  0.25830198  0.83443349  0.96239731     0.27000
C618        C  0.28364442  0.81375221  0.89320082     0.27000
C619        C  0.22174208  0.74384626  0.05806798     0.35600
C620        C  0.24623128  0.80215874  0.04589370     0.35600
C621        C  0.28857976  0.69846547  0.86606965     0.35600
C622        C  0.30875569  0.75814072  0.85321171     0.35600
C623        C  0.18549023  0.66500121  0.96923159    -0.21800
C624        C  0.20539707  0.65451142  0.92647086    -0.21800
C625        C  0.24897499  0.86084367  0.92320995    -0.21800
C626        C  0.26545498  0.84778285  0.87952345    -0.21800
C627        C  0.21486210  0.76353206  0.10240023    -0.22900
C628        C  0.23081721  0.80064501  0.09490277    -0.22900
C629        C  0.32489451  0.69699148  0.84356189    -0.22900
C630        C  0.33791784  0.73519423  0.83626583    -0.22900
C631        C  0.20078056  0.71083279  0.04085435    -0.18200
C632        C  0.27262233  0.66937269  0.89927713    -0.18200
C633        C  0.31308679  0.79768652  0.86542678    -0.18200
C634        C  0.24404418  0.83478810  0.01272149    -0.18200
H635        H  0.15818062  0.65170831  0.98202148     0.14700
H636        H  0.19737354  0.63094864  0.90106849     0.14700
H637        H  0.23218593  0.88685225  0.92587645     0.14700
H638        H  0.26574728  0.86264654  0.84275570     0.14700
H639        H  0.19626125  0.75392785  0.13363535     0.13000
H640        H  0.22584448  0.82517415  0.11896409     0.12900
H641        H  0.34241473  0.67153657  0.84029560     0.13000
H642        H  0.36694645  0.74504275  0.82583621     0.12900
H643        H  0.26631542  0.71633894  0.97774904     0.26200
H644        H  0.29422485  0.78446186  0.96465610     0.26200
C645        C  0.50041867  0.74426943  0.26693276    -0.02400
C646        C  0.24903611  0.00300903  0.26792599    -0.02400
C647        C  0.50185560  0.75822024  0.76729011    -0.02400
C648        C  0.24607657  0.50213446  0.76592197    -0.02400
C649        C  0.13565919  0.01255473  0.18423174    -0.05400
C650        C  0.17185043  0.51887860  0.15838941    -0.32800
C651        C  0.20817409  0.51930761  0.18388533     0.36400
C652        C  0.21015394  0.01107769  0.23736008    -0.05800
C653        C  0.17412942  0.01046656  0.26411459    -0.32700
C654        C  0.13740517  0.00985300  0.23811583     0.36300
H655        H  0.17242779  0.52374132  0.11731507     0.16700
O656        O  0.24091513  0.52811445  0.15582721    -0.60200
H657        H  0.17447516  0.00688541  0.30544063     0.16700
O658        O  0.10386093  0.00585165  0.26585088    -0.60300
H659        H  0.09690322  0.97753543  0.26600560     0.43700
H660        H  0.23835513  0.55546933  0.14334891     0.43600
C661        C  0.28698251  0.99824741  0.23521210    -0.05400
C662        C  0.32340620  0.01644626  0.24958838    -0.32800
C663        C  0.35815595  0.01060821  0.22314026     0.36400
C664        C  0.35805010  0.98607659  0.18066239    -0.05800
C665        C  0.32309754  0.46512328  0.16794256    -0.32700
C666        C  0.28857586  0.47006109  0.19543598     0.36300
H667        H  0.32578870  0.03498443  0.28244817     0.16700
O668        O  0.39174652  0.03051182  0.23802795    -0.60200
H669        H  0.32226740  0.44500941  0.13654620     0.16700
O670        O  0.25628065  0.44685390  0.18396954    -0.60300
H671        H  0.24970974  0.45233516  0.14743048     0.43700
H672        H  0.40119770  0.01638458  0.26917794     0.43600
C673        C  0.49773071  0.85421665  0.17351946    -0.05400
C674        C  0.48957755  0.81801768  0.15024495    -0.32800
C675        C  0.49020141  0.78230056  0.17796332     0.36400
C676        C  0.49936868  0.78171693  0.23120176    -0.05800
C677        C  0.00456757  0.81873354  0.25456399    -0.32700
C678        C  0.00422715  0.85413934  0.22641806     0.36300
H679        H  0.48216054  0.81713522  0.10977677     0.16700
O680        O  0.47851646  0.74894270  0.15310862    -0.60200
H681        H  0.00981332  0.82010912  0.29547736     0.16700
O682        O  0.01118010  0.88840052  0.25143782    -0.60300
H683        H  0.98499707  0.89904829  0.25626397     0.43700
H684        H  0.49593913  0.74714039  0.12339216     0.43600
C685        C  0.49590621  0.63005474  0.18860265    -0.05400
C686        C  0.52467929  0.65894630  0.17723376    -0.32800
C687        C  0.52684358  0.69480450  0.20248768     0.36400
C688        C  0.49846868  0.70384191  0.23904514    -0.05800
C689        C  0.97229945  0.67265596  0.25436612    -0.32700
C690        C  0.97100135  0.63634884  0.22983009     0.36300
H691        H  0.54551229  0.65389501  0.14763903     0.16700
O692        O  0.55705307  0.72092773  0.19142640    -0.60200
H693        H  0.95251097  0.67572406  0.28561342     0.16700
O694        O  0.94383736  0.60809857  0.24436162    -0.60300
H695        H  0.95707001  0.59234967  0.27142064     0.43700
H696        H  0.55729532  0.72453038  0.15364581     0.43600
C697        C  0.14161859  0.89835799  0.03002975    -0.05400
C698        C  0.14086461  0.86517335  0.00018475    -0.32800
C699        C  0.17446458  0.84498725  0.99419105     0.36400
C700        C  0.20935173  0.85759405  0.01909053    -0.05800
C701        C  0.21005565  0.88961387  0.05103530    -0.32700
C702        C  0.17621055  0.91041706  0.05638115     0.36300
H703        H  0.11469851  0.85603000  0.97909479     0.16700
O704        O  0.17364097  0.81440549  0.96116502    -0.60200
H705        H  0.23672599  0.89856018  0.07112307     0.16700
O706        O  0.17697728  0.94201905  0.08765512    -0.60300
H707        H  0.19089609  0.96323949  0.06811918     0.43700
H708        H  0.17379175  0.79055327  0.98316828     0.43600
C709        C  0.39343635  0.86389207  0.94751119    -0.05400
C710        C  0.38050435  0.87839239  0.89960966    -0.32800
C711        C  0.36027012  0.85392174  0.86538717     0.36400
C712        C  0.35178789  0.81493945  0.87999834    -0.05800
C713        C  0.36979378  0.79966480  0.92468781    -0.32700
C714        C  0.39062046  0.82386046  0.95838907     0.36300
H715        H  0.38534454  0.90894423  0.88924395     0.16700
O716        O  0.34607773  0.86865522  0.81961743    -0.60200
H717        H  0.36315139  0.77028492  0.93723334     0.16700
O718        O  0.40473126  0.80883711  0.00392417    -0.60300
H719        H  0.43091628  0.79934003  0.99606885     0.43700
H720        H  0.32926014  0.89042852  0.82823996     0.43600
C721        C  0.34990337  0.60229659  0.99455970    -0.05400
C722        C  0.35617040  0.64253121  0.98895105    -0.32800
C723        C  0.33166340  0.66435316  0.95768235     0.36400
C724        C  0.29990016  0.64607783  0.93126395    -0.05800
C725        C  0.29030982  0.60691892  0.94307427    -0.32700
C726        C  0.31484994  0.58494749  0.97481506     0.36300
H727        H  0.38161647  0.65703265  0.00617703     0.16700
O728        O  0.33898471  0.70371571  0.95362050    -0.60200
H729        H  0.26391013  0.59328382  0.92734514     0.16700
O730        O  0.30554858  0.54611311  0.98313937    -0.60300
H731        H  0.28919351  0.54511140  0.01410553     0.43700
H732        H  0.36489143  0.70649157  0.93727776     0.43600
C733        C  0.10301199  0.64418507  0.06859763    -0.05400
C734        C  0.09759783  0.68234535  0.05045271    -0.32800
C735        C  0.12915920  0.70901001  0.05052987     0.36400
C736        C  0.16593544  0.69663172  0.06807350    -0.05800
C737        C  0.16873738  0.66174612  0.09624885    -0.32700
C738        C  0.13697962  0.63546329  0.09719805     0.36300
H739        H  0.07083210  0.68997589  0.03047117     0.16700
O740        O  0.12554202  0.74406363  0.02497139    -0.60200
H741        H  0.19679026  0.65262867  0.11116150     0.16700
O742        O  0.14106269  0.59961951  0.12058615    -0.60300
H743        H  0.13012210  0.60215493  0.15518409     0.43700
H744        H  0.12644753  0.76388369  0.05203472     0.43600
C745        C  0.28701006  0.50199817  0.79542418    -0.05400
C746        C  0.31780901  0.97722067  0.78229361    -0.32800
C747        C  0.35441310  0.97818739  0.80832728     0.36400
C748        C  0.36185342  0.50407289  0.84828418    -0.05800
C749        C  0.33326353  0.53093370  0.85849980    -0.32700
C750        C  0.29723695  0.53109747  0.83165560     0.36300
H751        H  0.31448265  0.95736516  0.75095307     0.16700
O752        O  0.38225379  0.95264892  0.79520758    -0.60200
H753        H  0.33909706  0.55228431  0.88766047     0.16700
O754        O  0.27153731  0.55936232  0.84244030    -0.60300
H755        H  0.28350863  0.58411727  0.82863342     0.43700
H756        H  0.40021584  0.96792444  0.77240738     0.43600
C757        C  0.13904607  0.50545286  0.86141318    -0.05400
C758        C  0.17529099  0.49553787  0.88407062    -0.32800
C759        C  0.20958261  0.49230347  0.85515020     0.36400
C760        C  0.20907541  0.50024085  0.80148358    -0.05800
C761        C  0.17178748  0.00634388  0.77818752    -0.32700
C762        C  0.13772151  0.00987478  0.80719093     0.36300
H763        H  0.17716605  0.48950929  0.92492778     0.16700
O764        O  0.24231750  0.47845307  0.87947327    -0.60200
H765        H  0.16934697  0.01069401  0.73709407     0.16700
O766        O  0.10351001  0.01884009  0.78228916    -0.60300
H767        H  0.09172073  0.99341712  0.77161723     0.43700
H768        H  0.24893158  0.49688112  0.90730041     0.43600
C769        C  0.50213594  0.64785330  0.86088654    -0.05400
C770        C  0.49703679  0.64732385  0.80746052    -0.32800
C771        C  0.49858701  0.68219584  0.77739501     0.36400
C772        C  0.50374388  0.71942353  0.80053848    -0.05800
C773        C  0.01271630  0.71913984  0.85332889    -0.32700
C774        C  0.01164486  0.68444497  0.88320830     0.36300
H775        H  0.49108298  0.61984389  0.78875868     0.16700
O776        O  0.49390971  0.67977436  0.72520207    -0.60200
H777        H  0.02124686  0.74586016  0.87226026     0.16700
O778        O  0.02210735  0.68656599  0.93406074    -0.60300
H779        H  0.99968272  0.69817167  0.95087276     0.43700
H780        H  0.46725201  0.66842308  0.71908207     0.43600
C781        C  0.50309508  0.87077178  0.84980668    -0.05400
C782        C  0.47900740  0.83868586  0.86493723    -0.32800
C783        C  0.47789706  0.80338212  0.83876064     0.36400
C784        C  0.50372271  0.79736595  0.79807655    -0.05800
C785        C  0.02625516  0.83086861  0.78081409    -0.32700
C786        C  0.02598225  0.86693674  0.80610785     0.36300
H787        H  0.46059825  0.84093836  0.89784248     0.16700
O788        O  0.45164216  0.77461144  0.85421668    -0.60200
H789        H  0.04389504  0.82971008  0.74702628     0.16700
O790        O  0.04864461  0.89792542  0.78827506    -0.60300
H791        H  0.07299918  0.89752743  0.80936999     0.43700
H792        H  0.42578619  0.78375404  0.84247863     0.43600
C793        C  0.38774529  0.77212875  0.68404814    -0.05400
C794        C  0.39099764  0.74358912  0.72270901    -0.32800
C795        C  0.42657347  0.73785316  0.74966274     0.36400
C796        C  0.46141384  0.76040602  0.73706836    -0.05800
C797        C  0.45673431  0.79061016  0.69985745    -0.32700
C798        C  0.42106292  0.79633658  0.67361054     0.36300
H799        H  0.36584357  0.72474176  0.73151568     0.16700
O800        O  0.42557497  0.71209092  0.79068369    -0.60200
H801        H  0.48129301  0.81011244  0.69068899     0.16700
O802        O  0.41933605  0.82554291  0.63689004    -0.60300
H803        H  0.41379983  0.84941831  0.65577572     0.43700
H804        H  0.41590637  0.68663898  0.77723704     0.43600
C805        C  0.03914207  0.75593598  0.73289569    -0.05400
C806        C  0.03683995  0.75007736  0.67972127    -0.32800
C807        C  0.07041334  0.74573329  0.65026159     0.36400
C808        C  0.10852217  0.74646749  0.67313021    -0.05800
C809        C  0.11110981  0.75198278  0.72616492    -0.32700
C810        C  0.07744067  0.75669088  0.75564321     0.36300
H811        H  0.00884178  0.74763942  0.66018459     0.16700
O812        O  0.06522375  0.74167271  0.59842767    -0.60200
H813        H  0.13946860  0.75273963  0.74522402     0.16700
O814        O  0.08233964  0.76134962  0.80740478    -0.60300
H815        H  0.09346186  0.78821886  0.81141469     0.43700
H816        H  0.05677185  0.71398989  0.59388346     0.43600
C817        C  0.25823024  0.61785255  0.68529301    -0.05400
C818        C  0.28122395  0.58628609  0.67286718    -0.32800
C819        C  0.27691053  0.54953227  0.69731728     0.36400
C820        C  0.24829108  0.54237733  0.73526907    -0.05800
C821        C  0.22634962  0.57510049  0.74894226    -0.32700
C822        C  0.23072029  0.61188465  0.72405579     0.36300
H823        H  0.30250917  0.58979161  0.64282450     0.16700
O824        O  0.29992825  0.52012516  0.68211528    -0.60200
H825        H  0.20627138  0.57329587  0.78031962     0.16700
O826        O  0.20719389  0.64144874  0.73727087    -0.60300
H827        H  0.18248172  0.63692514  0.71756876     0.43700
H828        H  0.32694574  0.52788050  0.69293363     0.43600
C829        C  0.23440098  0.89408134  0.67171721    -0.05400
C830        C  0.22546500  0.93091103  0.65008519    -0.32800
C831        C  0.22765788  0.96551840  0.67869520     0.36400
C832        C  0.24027725  0.96481564  0.73093593    -0.05800
C833        C  0.24521344  0.92716527  0.75350241    -0.32700
C834        C  0.24339176  0.89269494  0.72464477     0.36300
H835        H  0.21646549  0.93323721  0.61019401     0.16700
O836        O  0.21461408  0.99913148  0.65576928    -0.60200
H837        H  0.25231854  0.92464158  0.79397758     0.16700
O838        O  0.25141400  0.85788313  0.74866451    -0.60300
H839        H  0.22582959  0.84723018  0.76077371     0.43700
H840        H  0.23111663  0.00401359  0.62531530     0.43600
C841        C  0.45741560  0.60036277  0.51203613    -0.05400
C842        C  0.42773628  0.59140851  0.54671460    -0.32800
C843        C  0.40003105  0.61886044  0.55634619     0.36400
C844        C  0.40250686  0.65584479  0.53156430    -0.05800
C845        C  0.43554422  0.66643588  0.50272856    -0.32700
C846        C  0.46320006  0.63871218  0.49303769     0.36300
H847        H  0.42345874  0.56182738  0.56164497     0.16700
O848        O  0.36924725  0.60851383  0.58734035    -0.60200
H849        H  0.43796165  0.69476892  0.48369745     0.16700
O850        O  0.49285521  0.64777356  0.45982819    -0.60300
H851        H  0.51547545  0.65572930  0.48189926     0.43700
H852        H  0.35227802  0.59035208  0.56706830     0.43600
C853        C  0.15647507  0.59449965  0.51179307    -0.05400
C854        C  0.13259955  0.59039044  0.46834029    -0.32800
C855        C  0.11305736  0.55517130  0.45911502     0.36400
C856        C  0.11600594  0.52391671  0.49494924    -0.05800
C857        C  0.14135375  0.52731522  0.53739307    -0.32700
C858        C  0.16232551  0.56241522  0.54537185     0.36300
H859        H  0.12911574  0.61461690  0.44139509     0.16700
O860        O  0.08813146  0.55264738  0.41748315    -0.60200
H861        H  0.14319325  0.50365708  0.56548687     0.16700
O862        O  0.18631198  0.56601783  0.58770929    -0.60300
H863        H  0.21282472  0.56079218  0.57552244     0.43700
H864        H  0.10488851  0.54675264  0.38829591     0.43600
C865        C  0.10305249  0.83369159  0.44595993    -0.05400
C866        C  0.06515341  0.83491333  0.46463300    -0.32800
C867        C  0.03592486  0.85242525  0.43484588     0.36400
C868        C  0.04442483  0.86699372  0.38495880    -0.05800
C869        C  0.07949871  0.85682922  0.36288786    -0.32700
C870        C  0.10984991  0.84347149  0.39424628     0.36300
H871        H  0.05907477  0.82533438  0.50359675     0.16700
O872        O  0.00103204  0.85965261  0.45705703    -0.60200
H873        H  0.08606856  0.86669290  0.32416351     0.16700
O874        O  0.14662942  0.84214387  0.37480612    -0.60300
H875        H  0.15865023  0.86837656  0.38104297     0.43700
H876        H  0.00636451  0.88280570  0.47843920     0.43600
C877        C  0.34791768  0.91055657  0.50366574    -0.05400
C878        C  0.38873768  0.91056950  0.50687297    -0.32800
C879        C  0.41067679  0.93502455  0.47438247     0.36400
C880        C  0.39143775  0.95737417  0.43605790    -0.05800
C881        C  0.35183915  0.96431173  0.44163174    -0.32700
C882        C  0.32999982  0.94181180  0.47691771     0.36300
H883        H  0.40348435  0.88899544  0.53043069     0.14100
O884        O  0.45063265  0.93377253  0.47654716    -0.60200
H885        H  0.33717910  0.98438444  0.41584141     0.16700
O886        O  0.29042136  0.94640284  0.47820248    -0.60300
H887        H  0.28652753  0.96388421  0.50722283     0.43700
H888        H  0.45930946  0.95621759  0.49766153     0.43600
C889        C  0.11565670  0.73705736  0.34903979    -0.05400
C890        C  0.08318009  0.71293529  0.36272512    -0.32800
C891        C  0.04652549  0.71596580  0.33811963     0.36400
C892        C  0.04052279  0.74394412  0.29821637    -0.05800
C893        C  0.07404465  0.76709804  0.28323615    -0.32700
C894        C  0.11081460  0.76384409  0.30799341     0.36300
H895        H  0.08596444  0.69161377  0.39375366     0.16700
O896        O  0.01672295  0.69066326  0.35295914    -0.60200
H897        H  0.07271171  0.78731993  0.25096657     0.16700
O898        O  0.14124208  0.78825474  0.29289339    -0.60300
H899        H  0.15574460  0.77327440  0.26790294     0.43700
H900        H  0.00975939  0.69860706  0.38778234     0.43600
C901        C  0.39487833  0.76095477  0.36107730    -0.05400
C902        C  0.39161561  0.75049819  0.30956664    -0.32800
C903        C  0.42489465  0.74604051  0.27949018     0.36400
C904        C  0.46346765  0.74915772  0.30103707    -0.05800
C905        C  0.46655258  0.76192072  0.35190812    -0.32700
C906        C  0.43329720  0.76782152  0.38149333     0.36300
H907        H  0.36298341  0.74589922  0.29202021     0.16700
O908        O  0.41921183  0.73746921  0.22884109    -0.60200
H909        H  0.49492083  0.76857034  0.36903828     0.16700
O910        O  0.43901778  0.78171636  0.43000051    -0.60300
H911        H  0.45021279  0.75995766  0.45043251     0.43700
H912        H  0.41069439  0.76205838  0.21203720     0.43600
C913        C  0.24868858  0.88607807  0.34517312    -0.05400
C914        C  0.21878505  0.89460167  0.31045650    -0.32800
C915        C  0.21724912  0.93141842  0.28556286     0.36400
C916        C  0.24534820  0.96234708  0.29753444    -0.05800
C917        C  0.27629212  0.95200511  0.33121946    -0.32700
C918        C  0.27852215  0.91437329  0.35328593     0.36300
H919        H  0.19637403  0.87246583  0.30216691     0.16700
O920        O  0.19028456  0.93478403  0.24638627    -0.60200
H921        H  0.29991849  0.97295170  0.33880943     0.16700
O922        O  0.31073206  0.90480905  0.38195449    -0.60300
H923        H  0.32933991  0.89504823  0.35706132     0.43700
H924        H  0.16431423  0.93017746  0.26212842     0.43600
C925        C  0.25940215  0.60945153  0.36338016    -0.05400
C926        C  0.26530991  0.61145368  0.31047845    -0.32800
C927        C  0.26272609  0.57773702  0.28037429     0.36400
C928        C  0.25441868  0.53985030  0.30244950    -0.05800
C929        C  0.24765228  0.53822491  0.35556729    -0.32700
C930        C  0.24972339  0.57208423  0.38548650     0.36300
H931        H  0.27211468  0.63942173  0.29200118     0.16700
O932        O  0.26801962  0.58232264  0.22867180    -0.60200
H933        H  0.23915399  0.51086267  0.37430115     0.16700
O934        O  0.24094541  0.56820453  0.43642808    -0.60300
H935        H  0.21204440  0.56553760  0.43734266     0.43700
H936        H  0.29588901  0.59043037  0.22451449     0.43600
O937        O  0.75787758  0.18007436  0.37446526    -0.80100
O938        O  0.75204965  0.18791147  0.66741892    -0.81600
O939        O  0.83493926  0.16159539  0.52734858    -0.78700
O940        O  0.71491516  0.12961438  0.52300815    -0.77000
O941        O  0.65846863  0.16280782  0.51473758    -0.78800
O942        O  0.87302529  0.21746056  0.52577518    -0.79800
O943        O  0.76711403  0.14594254  0.60438903    -0.81100
O944        O  0.76832009  0.13966431  0.44389593    -0.81400
Eu945      Eu  0.76698552  0.17828093  0.52144008     2.39200
O946        O  0.72026964  0.20632689  0.57284456    -0.88900
O947        O  0.79952213  0.22273700  0.46633267    -0.92500
C948        C  0.76243978  0.14546723  0.39549754     1.02200
C949        C  0.75954634  0.15333208  0.65103558     1.02000
C950        C  0.86819200  0.18008013  0.52866191     1.02000
C951        C  0.67780817  0.13122169  0.51803692     0.99800
H952        H  0.81447177  0.21272572  0.59660920     0.29600
O953        O  0.79573926  0.22560480  0.57459190    -1.01300
H954        H  0.70799233  0.18459726  0.44414557     0.29600
O955        O  0.72153338  0.20460149  0.46357068    -1.03800
O956        O  0.74284766  0.32414298  0.65804668    -0.81000
O957        O  0.74957540  0.31630213  0.36437775    -0.80600
O958        O  0.86114392  0.27727982  0.60122585    -0.79000
O959        O  0.63876706  0.23428047  0.59420317    -0.82400
O960        O  0.64336505  0.23009210  0.43109047    -0.80200
O961        O  0.86483666  0.27146155  0.44054792    -0.78900
O962        O  0.78808461  0.37528703  0.51274070    -0.80400
O963        O  0.66694797  0.33840792  0.48209118    -0.82300
O964        O  0.84436029  0.34176688  0.51608074    -0.79000
O965        O  0.62932088  0.28277668  0.49478244    -0.81700
O966        O  0.81744540  0.26395774  0.66542114    -0.77500
O967        O  0.82378783  0.25501732  0.37393577    -0.77500
O968        O  0.68615232  0.24499356  0.36644818    -0.77100
O969        O  0.67981234  0.25024741  0.66099562    -0.80600
O970        O  0.72840187  0.36442708  0.58973009    -0.80100
O971        O  0.73913821  0.36033600  0.42726885    -0.78400
Eu972      Eu  0.74888434  0.25541632  0.62584910     2.39800
Eu973      Eu  0.75417524  0.24955327  0.40694742     2.39600
Eu974      Eu  0.82769566  0.27113518  0.51943169     2.38400
Eu975      Eu  0.67546697  0.23304222  0.51488175     2.39900
Eu976      Eu  0.73495367  0.32741249  0.51059113     2.39800
O977        O  0.70833481  0.27770972  0.46031593    -0.92800
O978        O  0.78039161  0.30038893  0.56845224    -0.91700
C979        C  0.73494685  0.35833063  0.63816586     1.02400
C980        C  0.74496448  0.35149920  0.38048639     1.01100
C981        C  0.85272724  0.27177372  0.64862012     1.00500
C982        C  0.64495297  0.24290815  0.64146344     1.02500
C983        C  0.65110967  0.23713944  0.38364821     1.01400
C984        C  0.85856184  0.26308858  0.39325755     1.00300
C985        C  0.82538983  0.37371825  0.51303742     1.00300
C986        C  0.63464987  0.31795904  0.47821009     1.02900
H987        H  0.79746185  0.31708855  0.44097215     0.30300
O988        O  0.78286650  0.29795200  0.46135941    -1.05000
H989        H  0.68327115  0.29685235  0.58331964     0.32400
O990        O  0.70316433  0.28290324  0.56640736    -1.07500
N991        N  0.02304620  0.01995714  0.48207619    -0.36600
N992        N  0.54850479  0.45169154  0.43331955    -0.57100
N993        N  0.97602172  0.44989156  0.36275419    -0.36600
N994        N  0.95636028  0.51946202  0.42345208    -0.57100
C995        C  0.55048981  0.00616456  0.51426945     0.27000
C996        C  0.00258091  0.04523319  0.50829924     0.27000
C997        C  0.49006223  0.41257424  0.36258133     0.27000
C998        C  0.93697913  0.44472487  0.36721645     0.27000
C999        C  0.58219353  0.96881544  0.45089407     0.35600
C1000       C  0.55475836  0.43609216  0.38758317     0.35600
C1001       C  0.95233156  0.05503363  0.44165564     0.35600
C1002       C  0.92568364  0.51104100  0.39283276     0.35600
C1003       C  0.54784042  0.02318397  0.56174735    -0.21800
C1004       C  0.01761289  0.04781266  0.55773260    -0.21800
C1005       C  0.46007896  0.38443805  0.36203816    -0.21800
C1006       C  0.92690969  0.40526471  0.36312792    -0.21800
C1007       C  0.61122455  0.96368961  0.41577507    -0.22900
C1008       C  0.59364353  0.44211965  0.37453928    -0.22900
C1009       C  0.91818842  0.07043690  0.42166184    -0.22900
C1010       C  0.90062837  0.54189929  0.39203479    -0.22900
C1011       C  0.58490725  0.99337775  0.49322961    -0.18200
C1012       C  0.97296556  0.06760199  0.48588060    -0.18200
C1013       C  0.91300842  0.47226337  0.38950820    -0.18200
C1014       C  0.53011771  0.40573326  0.36986676    -0.18200
H1015       H  0.56844560  0.02102921  0.59350104     0.14700
H1016       H  0.00847169  0.06678211  0.58743573     0.14700
H1017       H  0.46276745  0.35309299  0.36325295     0.14700
H1018       H  0.89827852  0.39160620  0.36828709     0.14700
H1019       H  0.64126776  0.97452072  0.41767261     0.13000
H1020       H  0.60805015  0.43126831  0.34152904     0.12900
H1021       H  0.90462824  0.09694240  0.43258876     0.13000
H1022       H  0.87142745  0.54216994  0.37549760     0.12900
H1023       H  0.02326653  0.01827163  0.44228473     0.26200
H1024       H  0.99214145  0.47609270  0.36647060     0.26200
O1025       O  0.00244162  0.44060102  0.86755538    -0.80100
O1026       O  0.99771637  0.42541847  0.16124590    -0.81600
O1027       O  0.57354326  0.40460662  0.02179565    -0.78700
O1028       O  0.94937037  0.38369140  0.99368877    -0.77000
O1029       O  0.89675438  0.42292534  0.99102423    -0.78800
O1030       O  0.61360998  0.45871769  0.02999428    -0.79800
O1031       O  0.50200697  0.38541784  0.09244890    -0.81100
O1032       O  0.00983393  0.39491205  0.93235027    -0.81400
Eu1033     Eu  0.00597205  0.42528477  0.01494684     2.39200
O1034       O  0.96125886  0.45238407  0.07057473    -0.88900
O1035       O  0.54120642  0.47121554  0.96412515    -0.92500
C1036       C  0.00597923  0.40473921  0.88473565     1.02200
C1037       C  0.49919261  0.39089567  0.14073556     1.02000
C1038       C  0.60727161  0.42180741  0.02812798     1.02000
C1039       C  0.91378735  0.39102311  0.98183180     0.99800
H1040       H  0.55690805  0.45135694  0.09377480     0.29600
O1041       O  0.53911916  0.46624161  0.07267582    -1.01300
H1042       H  0.95128031  0.44578723  0.93723249     0.29600
O1043       O  0.96496591  0.46203265  0.96178296    -1.03800
O1044       O  0.99404357  0.06085937  0.16997194    -0.81000
O1045       O  0.00017021  0.07672401  0.87341908    -0.80600
O1046       O  0.60512526  0.51456410  0.10362513    -0.79000
O1047       O  0.88429641  0.47998616  0.09751216    -0.82400
O1048       O  0.88730536  0.99628462  0.93187646    -0.80200
O1049       O  0.61076209  0.01433626  0.94299424    -0.78900
O1050       O  0.54094755  0.11960679  0.04337465    -0.80400
O1051       O  0.91758221  0.09637186  0.01309566    -0.82300
O1052       O  0.59304261  0.08004464  0.04192947    -0.79000
O1053       O  0.87731376  0.04217232  0.01551018    -0.81700
O1054       O  0.56372561  0.50267903  0.16997066    -0.77500
O1055       O  0.56835393  0.00758485  0.87497221    -0.77500
O1056       O  0.93196638  0.00406040  0.86750130    -0.77100
O1057       O  0.92770657  0.49000635  0.16416247    -0.80600
O1058       O  0.98564455  0.10700775  0.10588690    -0.80100
O1059       O  0.99156190  0.11618213  0.94145879    -0.78400
Eu1060     Eu  0.99542471  0.49528558  0.12837215     2.39800
Eu1061     Eu  0.99969861  0.00719980  0.90859527     2.39600
Eu1062     Eu  0.57248310  0.51358901  0.02163709     2.38400
Eu1063     Eu  0.91955379  0.48810008  0.01608947     2.39900
Eu1064     Eu  0.98571699  0.07742252  0.02145019     2.39800
O1065       O  0.95432968  0.03482833  0.96451664    -0.92800
O1066       O  0.52722626  0.04103969  0.07398587    -0.91700
C1067       C  0.99083458  0.09673683  0.15328775     1.02400
C1068       C  0.99747415  0.11100143  0.89345937     1.01100
C1069       C  0.59860802  0.50996544  0.15156419     1.00500
C1070       C  0.89245542  0.48448154  0.14561507     1.02500
C1071       C  0.89630656  0.00110519  0.88432940     1.01400
C1072       C  0.60360366  0.00973590  0.89473470     1.00300
C1073       C  0.57720912  0.11267363  0.05050661     1.00300
C1074       C  0.88354088  0.07904255  0.01067230     1.02900
H1075       H  0.54809503  0.06975194  0.95065987     0.30300
O1076       O  0.53181173  0.05015074  0.96773602    -1.05000
H1077       H  0.93363316  0.04404563  0.09303716     0.32400
O1078       O  0.95226391  0.03073706  0.07303740    -1.07500
N1079       N  0.74177474  0.20031087  0.96661512    -0.36600
N1080       N  0.74336384  0.26647006  0.02637981    -0.57100
N1081       N  0.78047712  0.30651931  0.94446882    -0.36600
N1082       N  0.77770954  0.23591876  0.86842204    -0.57100
C1083       C  0.70882858  0.19368541  0.99311591     0.27000
C1084       C  0.73962407  0.17760134  0.92543109     0.27000
C1085       C  0.75869772  0.33456843  0.96327346     0.27000
C1086       C  0.78387368  0.31400099  0.89385372     0.27000
C1087       C  0.72214332  0.24352134  0.05820801     0.35600
C1088       C  0.74643914  0.30194059  0.04651875     0.35600
C1089       C  0.78852572  0.19862034  0.86562581     0.35600
C1090       C  0.80863881  0.25837152  0.85324528     0.35600
C1091       C  0.68550601  0.16559212  0.96829221    -0.21800
C1092       C  0.70549376  0.15503116  0.92563820    -0.21800
C1093       C  0.74956711  0.36122319  0.92429615    -0.21800
C1094       C  0.76590650  0.34822383  0.88046849    -0.21800
C1095       C  0.71504263  0.26301421  0.10262492    -0.22900
C1096       C  0.73085936  0.30019724  0.09543284    -0.22900
C1097       C  0.82454211  0.19727988  0.84232852    -0.22900
C1098       C  0.83754317  0.23553238  0.83535177    -0.22900
C1099       C  0.70107968  0.21071918  0.04056814    -0.18200
C1100       C  0.77293728  0.16936081  0.89886694    -0.18200
C1101       C  0.81312722  0.29784052  0.86578775    -0.18200
C1102       C  0.74419228  0.33467116  0.01351989    -0.18200
H1103       H  0.65787142  0.15272793  0.98058959     0.14700
H1104       H  0.69720082  0.13185260  0.89976316     0.14700
H1105       H  0.73290288  0.38729662  0.92716823     0.14700
H1106       H  0.76615032  0.36316723  0.84373048     0.14700
H1107       H  0.69628725  0.25327297  0.13363870     0.13000
H1108       H  0.72565588  0.32460311  0.11960397     0.12900
H1109       H  0.84195961  0.17183360  0.83832025     0.13000
H1110       H  0.86644411  0.24545017  0.82444935     0.12900
H1111       H  0.76700572  0.21575441  0.97826801     0.26200
H1112       H  0.79441306  0.28439887  0.96507891     0.26200
C1113       C  0.00042641  0.24454266  0.26682379    -0.02400
C1114       C  0.74908293  0.50273456  0.26772493    -0.02400
C1115       C  0.00181089  0.25811249  0.76720416    -0.02400
C1116       C  0.74611204  0.00207887  0.76608360    -0.02400
C1117       C  0.63565049  0.51284894  0.18418631    -0.05400
C1118       C  0.67184090  0.01896592  0.15842433    -0.32800
C1119       C  0.70817656  0.01921023  0.18388462     0.36400
C1120       C  0.71020601  0.51095288  0.23719201    -0.05800
C1121       C  0.67420695  0.51051506  0.26399871    -0.32700
C1122       C  0.63745121  0.51013124  0.23806538     0.36300
H1123       H  0.67240868  0.02402223  0.11738300     0.16700
O1124       O  0.74091517  0.02807791  0.15584170    -0.60200
H1125       H  0.67457973  0.50692959  0.30532441     0.16700
O1126       O  0.60392293  0.50638815  0.26586400    -0.60300
H1127       H  0.59676856  0.47811487  0.26606878     0.43700
H1128       H  0.73827207  0.05539029  0.14322877     0.43600
C1129       C  0.78702265  0.49793631  0.23500707    -0.05400
C1130       C  0.82344840  0.51614833  0.24936070    -0.32800
C1131       C  0.85818933  0.51028568  0.22294692     0.36400
C1132       C  0.85810533  0.48568028  0.18056584    -0.05800
C1133       C  0.82328655  0.96510265  0.16780764    -0.32700
C1134       C  0.78870894  0.97001374  0.19518300     0.36300
H1135       H  0.82584849  0.53472652  0.28217612     0.16700
O1136       O  0.89175163  0.53025948  0.23776736    -0.60200
H1137       H  0.82252451  0.94500206  0.13639691     0.16700
O1138       O  0.75640631  0.94689402  0.18345906    -0.60300
H1139       H  0.75000538  0.95242225  0.14687964     0.43700
H1140       H  0.90188847  0.51545644  0.26797364     0.43600
C1141       C  0.99832020  0.35450761  0.17351274    -0.05400
C1142       C  0.99056757  0.31830658  0.15007007    -0.32800
C1143       C  0.99085786  0.28259633  0.17778858     0.36400
C1144       C  0.99952252  0.28199928  0.23113648    -0.05800
C1145       C  0.50496260  0.31870200  0.25475143    -0.32700
C1146       C  0.50485345  0.35412312  0.22658501     0.36300
H1147       H  0.98357333  0.31741436  0.10948543     0.16700
O1148       O  0.97923882  0.24927742  0.15280772    -0.60200
H1149       H  0.51069239  0.32001449  0.29557356     0.16700
O1150       O  0.51313669  0.38827293  0.25133538    -0.60300
H1151       H  0.48737696  0.39960146  0.25695582     0.43700
H1152       H  0.99677900  0.24747088  0.12321278     0.43600
C1153       C  0.99597983  0.13010064  0.18882889    -0.05400
C1154       C  0.02486948  0.15890548  0.17758179    -0.32800
C1155       C  0.02696187  0.19487651  0.20261425     0.36400
C1156       C  0.99850042  0.20405535  0.23900099    -0.05800
C1157       C  0.47252211  0.17242402  0.25487021    -0.32700
C1158       C  0.47135883  0.13604609  0.23048485     0.36300
H1159       H  0.04581347  0.15372415  0.14816452     0.16700
O1160       O  0.05716653  0.22099074  0.19146997    -0.60200
H1161       H  0.45298252  0.17539625  0.28641955     0.16700
O1162       O  0.44467948  0.10751942  0.24562713    -0.60300
H1163       H  0.45774551  0.09310936  0.27411595     0.43700
H1164       H  0.05776608  0.22412415  0.15364220     0.43600
C1165       C  0.64135075  0.39786836  0.03059820    -0.05400
C1166       C  0.64100494  0.36518425  0.99984989    -0.32800
C1167       C  0.67468766  0.34503572  0.99411679     0.36400
C1168       C  0.70933289  0.35734948  0.01985138    -0.05800
C1169       C  0.70954822  0.38879669  0.05276925    -0.32700
C1170       C  0.67554776  0.40940104  0.05813820     0.36300
H1171       H  0.61508759  0.35637793  0.97801140     0.16700
O1172       O  0.67416684  0.31469649  0.96072407    -0.60200
H1173       H  0.73594208  0.39740176  0.07370481     0.16700
O1174       O  0.67570972  0.44020552  0.09071019    -0.60300
H1175       H  0.69061225  0.46165132  0.07289981     0.43700
H1176       H  0.67407670  0.29069207  0.98246686     0.43600
C1177       C  0.89343505  0.36400271  0.94745745    -0.05400
C1178       C  0.88044387  0.37849606  0.89958342    -0.32800
C1179       C  0.86035302  0.35396518  0.86530145     0.36400
C1180       C  0.85195795  0.31497373  0.87991844    -0.05800
C1181       C  0.87015171  0.29968034  0.92446710    -0.32700
C1182       C  0.89089799  0.32392261  0.95818517     0.36300
H1183       H  0.88515617  0.40907194  0.88926937     0.16700
O1184       O  0.84617514  0.36862963  0.81948162    -0.60200
H1185       H  0.86370235  0.27023094  0.93692570     0.16700
O1186       O  0.90520885  0.30884881  0.00358453    -0.60300
H1187       H  0.93263991  0.30262131  0.99667136     0.43700
H1188       H  0.82949853  0.39053894  0.82799307     0.43600
C1189       C  0.85018164  0.10260472  0.99482339    -0.05400
C1190       C  0.85669860  0.14275919  0.98841960    -0.32800
C1191       C  0.83243994  0.16439150  0.95655716     0.36400
C1192       C  0.80043634  0.14610292  0.93064178    -0.05800
C1193       C  0.79064681  0.10708216  0.94316189    -0.32700
C1194       C  0.81508894  0.08524131  0.97523913     0.36300
H1195       H  0.88221754  0.15730296  0.00540306     0.16700
O1196       O  0.84016258  0.20363696  0.95161606    -0.60200
H1197       H  0.76412832  0.09345316  0.92775904     0.16700
O1198       O  0.80566871  0.04648190  0.98404299    -0.60300
H1199       H  0.78834629  0.04583666  0.01407390     0.43700
H1200       H  0.86593334  0.20596837  0.93483862     0.43600
C1201       C  0.60315881  0.14417168  0.06873617    -0.05400
C1202       C  0.59778553  0.18233895  0.05056624    -0.32800
C1203       C  0.62944650  0.20889463  0.05027902     0.36400
C1204       C  0.66622937  0.19643546  0.06763553    -0.05800
C1205       C  0.66908390  0.16153851  0.09574068    -0.32700
C1206       C  0.63727056  0.13535287  0.09698167     0.36300
H1207       H  0.57095581  0.19002776  0.03078610     0.16700
O1208       O  0.62588313  0.24390615  0.02459839    -0.60200
H1209       H  0.69718147  0.15235305  0.11042243     0.16700
O1210       O  0.64141767  0.09948434  0.12026377    -0.60300
H1211       H  0.63068392  0.10200981  0.15497836     0.43700
H1212       H  0.62536301  0.26362401  0.05170842     0.43600
C1213       C  0.78698405  0.00188533  0.79571174    -0.05400
C1214       C  0.81764014  0.47712883  0.78250556    -0.32800
C1215       C  0.85423170  0.47809698  0.80853914     0.36400
C1216       C  0.86195140  0.00416471  0.84828787    -0.05800
C1217       C  0.83334668  0.03101272  0.85852629    -0.32700
C1218       C  0.79721688  0.03101576  0.83190752     0.36300
H1219       H  0.81431097  0.45726130  0.75117776     0.16700
O1220       O  0.88208577  0.45256919  0.79545827    -0.60200
H1221       H  0.83919987  0.05241511  0.88762964     0.16700
O1222       O  0.77141836  0.05914468  0.84289284    -0.60300
H1223       H  0.78328277  0.08398812  0.82921096     0.43700
H1224       H  0.89839381  0.46699101  0.76982706     0.43600
C1225       C  0.63896913  0.00548140  0.86128196    -0.05400
C1226       C  0.67514806  0.99540952  0.88398820    -0.32800
C1227       C  0.70946548  0.99213978  0.85514520     0.36400
C1228       C  0.70905988  0.00021848  0.80152126    -0.05800
C1229       C  0.67176402  0.50644302  0.77831907    -0.32700
C1230       C  0.63773941  0.51015550  0.80736562     0.36300
H1231       H  0.67694550  0.98927359  0.92482504     0.16700
O1232       O  0.74211728  0.97810706  0.87947418    -0.60200
H1233       H  0.66936591  0.51095512  0.73724039     0.16700
O1234       O  0.60364816  0.51981337  0.78264401    -0.60300
H1235       H  0.59367658  0.49542761  0.76657711     0.43700
H1236       H  0.74875639  0.99642914  0.90741197     0.43600
C1237       C  0.00211598  0.14769465  0.86064269    -0.05400
C1238       C  0.99711866  0.14716263  0.80719262    -0.32800
C1239       C  0.99862319  0.18205203  0.77715478     0.36400
C1240       C  0.00377656  0.21927011  0.80033972    -0.05800
C1241       C  0.51263038  0.21904367  0.85335839    -0.32700
C1242       C  0.51156911  0.18439296  0.88330329     0.36300
H1243       H  0.99122719  0.11968190  0.78846374     0.16700
O1244       O  0.99389060  0.17964717  0.72496882    -0.60200
H1245       H  0.52116365  0.24579092  0.87222272     0.16700
O1246       O  0.52208059  0.18657785  0.93412921    -0.60300
H1247       H  0.49947760  0.19777147  0.95103919     0.43700
H1248       H  0.96711753  0.16857449  0.71889122     0.43600
C1249       C  0.00298228  0.37053681  0.85001894    -0.05400
C1250       C  0.97909861  0.33833039  0.86530761    -0.32800
C1251       C  0.97795196  0.30307660  0.83900586     0.36400
C1252       C  0.00362807  0.29720472  0.79810526    -0.05800
C1253       C  0.52624739  0.33064902  0.78070421    -0.32700
C1254       C  0.52610064  0.36673161  0.80599517     0.36300
H1255       H  0.96083565  0.34047249  0.89837449     0.16700
O1256       O  0.95178945  0.27423705  0.85451768    -0.60200
H1257       H  0.54390436  0.32943645  0.74693959     0.16700
O1258       O  0.54899750  0.39760067  0.78834290    -0.60300
H1259       H  0.57515264  0.39380322  0.80419955     0.43700
H1260       H  0.92592794  0.28318139  0.84250177     0.43600
C1261       C  0.88769925  0.27195889  0.68398472    -0.05400
C1262       C  0.89099367  0.24334260  0.72253609    -0.32800
C1263       C  0.92655317  0.23768013  0.74956316     0.36400
C1264       C  0.96135994  0.26030090  0.73701137    -0.05800
C1265       C  0.95663370  0.29056656  0.69988152    -0.32700
C1266       C  0.92095403  0.29630467  0.67369889     0.36300
H1267       H  0.86587633  0.22441398  0.73123289     0.16700
O1268       O  0.92556570  0.21194799  0.79062528    -0.60200
H1269       H  0.98116774  0.31010990  0.69075450     0.16700
O1270       O  0.91921630  0.32566021  0.63718013    -0.60300
H1271       H  0.90630705  0.34728085  0.65397432     0.43700
H1272       H  0.91582385  0.18649777  0.77725079     0.43600
C1273       C  0.53918185  0.25569530  0.73302191    -0.05400
C1274       C  0.53691446  0.24950445  0.67993594    -0.32800
C1275       C  0.57050905  0.24515105  0.65053791     0.36400
C1276       C  0.60862639  0.24623970  0.67338016    -0.05800
C1277       C  0.61119140  0.25211213  0.72635221    -0.32700
C1278       C  0.57747993  0.25680828  0.75578266     0.36300
H1279       H  0.50891462  0.24683675  0.66043312     0.16700
O1280       O  0.56532519  0.24076211  0.59875941    -0.60200
H1281       H  0.63955775  0.25320049  0.74538467     0.16700
O1282       O  0.58233374  0.26194032  0.80747166    -0.60300
H1283       H  0.59399717  0.28864079  0.81107446     0.43700
H1284       H  0.55670849  0.21309168  0.59452067     0.43600
C1285       C  0.75842474  0.11783956  0.68549092    -0.05400
C1286       C  0.78148674  0.08629363  0.67320300    -0.32800
C1287       C  0.77714383  0.04954313  0.69766361     0.36400
C1288       C  0.74842632  0.04236325  0.73548519    -0.05800
C1289       C  0.72646231  0.07509828  0.74908597    -0.32700
C1290       C  0.73083465  0.11186322  0.72415599     0.36300
H1291       H  0.80283139  0.08980767  0.64324174     0.16700
O1292       O  0.80025577  0.02016967  0.68261003    -0.60200
H1293       H  0.70633094  0.07330674  0.78040354     0.16700
O1294       O  0.70716248  0.14136659  0.73715960    -0.60300
H1295       H  0.68319394  0.13772112  0.71566741     0.43700
H1296       H  0.82716330  0.02779166  0.69404320     0.43600
C1297       C  0.73438161  0.39395599  0.67187193    -0.05400
C1298       C  0.72575804  0.43082618  0.65008888    -0.32800
C1299       C  0.72798437  0.46547545  0.67862369     0.36400
C1300       C  0.74024307  0.46476726  0.73100783    -0.05800
C1301       C  0.74494056  0.42710505  0.75367076    -0.32700
C1302       C  0.74309460  0.39259191  0.72488783     0.36300
H1303       H  0.71701169  0.43316157  0.61010659     0.16700
O1304       O  0.71533976  0.49915119  0.65542771    -0.60200
H1305       H  0.75185445  0.42459599  0.79419962     0.16700
O1306       O  0.75081662  0.35776926  0.74909425    -0.60300
H1307       H  0.72509691  0.34718090  0.76080219     0.43700
H1308       H  0.73208077  0.50386840  0.62515938     0.43600
C1309       C  0.95754799  0.10027476  0.51326892    -0.05400
C1310       C  0.92810943  0.09173105  0.54843125    -0.32800
C1311       C  0.90040093  0.11927610  0.55767900     0.36400
C1312       C  0.90265301  0.15592714  0.53202072    -0.05800
C1313       C  0.93555191  0.16623025  0.50277462    -0.32700
C1314       C  0.96322315  0.13843221  0.49349818     0.36300
H1315       H  0.92395782  0.06232737  0.56402654     0.16700
O1316       O  0.86982003  0.10932090  0.58918914    -0.60200
H1317       H  0.93781542  0.19433051  0.48311649     0.16700
O1318       O  0.99269407  0.14714304  0.45987029    -0.60300
H1319       H  0.01585107  0.15385315  0.48167818     0.43700
H1320       H  0.85299682  0.09050014  0.56975408     0.43600
C1321       C  0.65663355  0.09419003  0.51150755    -0.05400
C1322       C  0.63359826  0.08979626  0.46734027    -0.32800
C1323       C  0.61422701  0.05450686  0.45788670     0.36400
C1324       C  0.61641272  0.02350275  0.49421540    -0.05800
C1325       C  0.64104444  0.02715339  0.53735527    -0.32700
C1326       C  0.66191591  0.06228365  0.54556171     0.36300
H1327       H  0.63063797  0.11385938  0.44001526     0.16700
O1328       O  0.59010562  0.05172172  0.41548541    -0.60200
H1329       H  0.64231584  0.00370088  0.56581842     0.16700
O1330       O  0.68520995  0.06609592  0.58851801    -0.60300
H1331       H  0.71198237  0.06114087  0.57705560     0.43700
H1332       H  0.60749764  0.04601737  0.38687110     0.43600
C1333       C  0.60293356  0.33370495  0.44667363    -0.05400
C1334       C  0.56516273  0.33541590  0.46559784    -0.32800
C1335       C  0.53594083  0.35286549  0.43573345     0.36400
C1336       C  0.54427886  0.36682653  0.38550679    -0.05800
C1337       C  0.57924061  0.35632313  0.36343477    -0.32700
C1338       C  0.60960379  0.34302607  0.39480581     0.36300
H1339       H  0.55920031  0.32624574  0.50474681     0.16700
O1340       O  0.50122651  0.36057600  0.45808471    -0.60200
H1341       H  0.58572527  0.36579437  0.32453238     0.16700
O1342       O  0.64629534  0.34129832  0.37519098    -0.60300
H1343       H  0.65855922  0.36745819  0.38121318     0.43700
H1344       H  0.50685210  0.38385327  0.47913814     0.43600
C1345       C  0.84766215  0.41058106  0.50254589    -0.05400
C1346       C  0.88847152  0.41060569  0.50586357    -0.32800
C1347       C  0.91047485  0.43509498  0.47349965     0.36400
C1348       C  0.89133638  0.45751942  0.43516530    -0.05800
C1349       C  0.85169558  0.46438789  0.44055327    -0.32700
C1350       C  0.82977004  0.44182844  0.47570079     0.36300
H1351       H  0.90318595  0.38906116  0.52950498     0.14100
O1352       O  0.95043000  0.43390493  0.47590131    -0.60200
H1353       H  0.83711281  0.48454016  0.41479390     0.16700
O1354       O  0.79017498  0.44640408  0.47675827    -0.60300
H1355       H  0.78568482  0.46019828  0.50894269     0.43700
H1356       H  0.95892758  0.45572255  0.49820306     0.43600
C1357       C  0.61559697  0.23689394  0.34897333    -0.05400
C1358       C  0.58312844  0.21278639  0.36270248    -0.32800
C1359       C  0.54651054  0.21572582  0.33800038     0.36400
C1360       C  0.54046201  0.24374721  0.29816526    -0.05800
C1361       C  0.57401089  0.26678088  0.28302334    -0.32700
C1362       C  0.61080557  0.26350584  0.30773134     0.36300
H1363       H  0.58591364  0.19149338  0.39376526     0.16700
O1364       O  0.51682130  0.19023830  0.35263268    -0.60200
H1365       H  0.57269627  0.28688953  0.25063229     0.16700
O1366       O  0.64135633  0.28763787  0.29232281    -0.60300
H1367       H  0.65308806  0.27425615  0.26341539     0.43700
H1368       H  0.50922228  0.19859369  0.38700614     0.43600
C1369       C  0.89462184  0.26111944  0.36061040    -0.05400
C1370       C  0.89147024  0.25091820  0.30897660    -0.32800
C1371       C  0.92483623  0.24645915  0.27902058     0.36400
C1372       C  0.96336515  0.24947335  0.30074618    -0.05800
C1373       C  0.96632432  0.26208503  0.35167960    -0.32700
C1374       C  0.93301106  0.26781318  0.38121893     0.36300
H1375       H  0.86287168  0.24644369  0.29128473     0.16700
O1376       O  0.91928503  0.23793874  0.22833328    -0.60200
H1377       H  0.99465037  0.26867091  0.36896119     0.16700
O1378       O  0.93865381  0.28127510  0.42996072    -0.60300
H1379       H  0.95036312  0.25955446  0.44992568     0.43700
H1380       H  0.91131690  0.26268369  0.21142393     0.43600
C1381       C  0.74826519  0.38579572  0.34504085    -0.05400
C1382       C  0.71835533  0.39444251  0.31037333    -0.32800
C1383       C  0.71700682  0.43124444  0.28538076     0.36400
C1384       C  0.74528835  0.46203576  0.29724607    -0.05800
C1385       C  0.77625382  0.45152668  0.33080076    -0.32700
C1386       C  0.77829445  0.41391456  0.35295861     0.36300
H1387       H  0.69580908  0.37241855  0.30218781     0.16700
O1388       O  0.69004411  0.43471601  0.24621563    -0.60200
H1389       H  0.80001715  0.47234180  0.33825912     0.16700
O1390       O  0.81047177  0.40422219  0.38162117    -0.60300
H1391       H  0.82867281  0.39348784  0.35694662     0.43700
H1392       H  0.66406280  0.43025667  0.26197842     0.43600
C1393       C  0.75949081  0.10909921  0.36348482    -0.05400
C1394       C  0.76517473  0.11114911  0.31053500    -0.32800
C1395       C  0.76255042  0.07745726  0.28037942     0.36400
C1396       C  0.75442666  0.03952275  0.30242441    -0.05800
C1397       C  0.74790406  0.03782867  0.35560054    -0.32700
C1398       C  0.75002100  0.07167241  0.38558897     0.36300
H1399       H  0.77182714  0.13914616  0.29204793     0.16700
O1400       O  0.76763741  0.08211899  0.22864920    -0.60200
H1401       H  0.73958247  0.01042076  0.37434655     0.16700
O1402       O  0.74152082  0.06771443  0.43661116    -0.60300
H1403       H  0.71267071  0.06441002  0.43776655     0.43700
H1404       H  0.79548411  0.09024672  0.22431901     0.43600
O1405       O  0.75783265  0.68042391  0.37441995    -0.80100
O1406       O  0.75151436  0.68793874  0.66739219    -0.81600
O1407       O  0.83448729  0.66182833  0.52800498    -0.78700
O1408       O  0.71460692  0.63000910  0.52251572    -0.77000
O1409       O  0.65814582  0.66318661  0.51425207    -0.78800
O1410       O  0.87293949  0.71744012  0.52726492    -0.79800
O1411       O  0.76617103  0.64607501  0.60408812    -0.81100
O1412       O  0.76794206  0.64002519  0.44391053    -0.81400
Eu1413     Eu  0.76664602  0.67864319  0.52142554     2.39200
O1414       O  0.71995059  0.70664769  0.57286664    -0.88900
O1415       O  0.79955524  0.72292263  0.46649068    -0.92500
C1416       C  0.76221766  0.64579837  0.39548760     1.02200
C1417       C  0.75875057  0.65335262  0.65079330     1.02000
C1418       C  0.86783364  0.68008344  0.53002683     1.02000
C1419       C  0.67751686  0.63160563  0.51739642     0.99800
H1420       H  0.81411162  0.71279471  0.59691779     0.29600
O1421       O  0.79550116  0.72575151  0.57479999    -1.01300
H1422       H  0.70783025  0.68508904  0.44402281     0.29600
O1423       O  0.72135966  0.70504924  0.46354006    -1.03800
O1424       O  0.74256932  0.82425912  0.65843393    -0.81000
O1425       O  0.74969509  0.81662716  0.36477309    -0.80600
O1426       O  0.86090752  0.77743243  0.60175001    -0.79000
O1427       O  0.63871178  0.73491222  0.59427089    -0.82400
O1428       O  0.64324980  0.73025268  0.43093271    -0.80200
O1429       O  0.86495518  0.77134203  0.44092909    -0.78900
O1430       O  0.78873640  0.87526182  0.51420416    -0.80400
O1431       O  0.66754375  0.83889797  0.48125131    -0.82300
O1432       O  0.84501137  0.84174952  0.51689019    -0.79000
O1433       O  0.62961680  0.78348004  0.49402862    -0.81700
O1434       O  0.81719253  0.76410618  0.66590790    -0.77500
O1435       O  0.82387232  0.75519403  0.37422182    -0.77500
O1436       O  0.68623477  0.74512189  0.36647722    -0.77100
O1437       O  0.67974146  0.75065373  0.66117737    -0.80600
O1438       O  0.72828941  0.86461585  0.59012780    -0.80100
O1439       O  0.73978819  0.86073984  0.42776131    -0.78400
Eu1440     Eu  0.74869985  0.75558952  0.62604345     2.39800
Eu1441     Eu  0.75425906  0.74987329  0.40712709     2.39600
Eu1442     Eu  0.82778055  0.77120317  0.51982065     2.38400
Eu1443     Eu  0.67528878  0.73346661  0.51481311     2.39900
Eu1444     Eu  0.73525815  0.82772259  0.51093994     2.39800
O1445       O  0.70858153  0.77807097  0.46063116    -0.92800
O1446       O  0.78049096  0.80048969  0.56882795    -0.91700
C1447       C  0.73470977  0.85846745  0.63858628     1.02400
C1448       C  0.74538645  0.85184417  0.38094490     1.01100
C1449       C  0.85247806  0.77198304  0.64913470     1.00500
C1450       C  0.64490145  0.74348211  0.64156218     1.02500
C1451       C  0.65113999  0.73719855  0.38350109     1.01400
C1452       C  0.85865744  0.76310221  0.39358973     1.00300
C1453       C  0.82604848  0.87371674  0.51434242     1.00300
C1454       C  0.63519426  0.81855118  0.47715236     1.02900
H1455       H  0.79780483  0.81732654  0.44137268     0.30300
O1456       O  0.78311082  0.79820158  0.46166391    -1.05000
H1457       H  0.68325192  0.79725654  0.58334055     0.32400
O1458       O  0.70312131  0.78323744  0.56648183    -1.07500
N1459       N  0.02175505  0.51889559  0.48457759    -0.36600
N1460       N  0.54834617  0.95135463  0.43517540    -0.57100
N1461       N  0.97550000  0.94905228  0.36312174    -0.36600
N1462       N  0.95701428  0.01971535  0.42237860    -0.57100
C1463       C  0.55148338  0.50676202  0.51166106     0.27000
C1464       C  0.00117451  0.54410785  0.51076746     0.27000
C1465       C  0.49068288  0.91325694  0.36198428     0.27000
C1466       C  0.93652727  0.94413557  0.36855544     0.27000
C1467       C  0.58257914  0.46899451  0.44841374     0.35600
C1468       C  0.55502077  0.93653564  0.38905740     0.35600
C1469       C  0.95127618  0.55439046  0.44362926     0.35600
C1470       C  0.92586825  0.01089732  0.39276534     0.35600
C1471       C  0.54876555  0.52339717  0.55937330    -0.21800
C1472       C  0.01627782  0.54684204  0.56015159    -0.21800
C1473       C  0.46082968  0.88503523  0.35985259    -0.21800
C1474       C  0.92619079  0.90467174  0.36543175    -0.21800
C1475       C  0.61134470  0.46320314  0.41316040    -0.22900
C1476       C  0.59392972  0.94305348  0.37650339    -0.22900
C1477       C  0.91729130  0.56996341  0.42340179    -0.22900
C1478       C  0.90096452  0.04187174  0.39157047    -0.22900
C1479       C  0.58573579  0.49359370  0.49066450    -0.18200
C1480       C  0.97161406  0.56654843  0.48827981    -0.18200
C1481       C  0.91300677  0.97210637  0.39071231    -0.18200
C1482       C  0.53066768  0.90645953  0.36995426    -0.18200
H1483       H  0.56911509  0.52070300  0.59133005     0.14700
H1484       H  0.00713168  0.56587205  0.58978525     0.14700
H1485       H  0.46362620  0.85370136  0.36030256     0.14700
H1486       H  0.89754566  0.89124351  0.37141119     0.14700
H1487       H  0.64150747  0.47369623  0.41466333     0.13000
H1488       H  0.60859910  0.93290947  0.34328127     0.12900
H1489       H  0.90348394  0.59621733  0.43477988     0.13000
H1490       H  0.87155176  0.04198199  0.37570281     0.12900
H1491       H  0.02201398  0.51724838  0.44480805     0.26200
H1492       H  0.99178398  0.97522882  0.36595681     0.26200
O1493       O  0.00265493  0.94073506  0.86719988    -0.80100
O1494       O  0.99758022  0.92517137  0.16073492    -0.81600
O1495       O  0.57339533  0.90447056  0.02156618    -0.78700
O1496       O  0.94981212  0.88355921  0.99375798    -0.77000
O1497       O  0.89722962  0.92286118  0.99065079    -0.78800
O1498       O  0.61336730  0.95868495  0.02935591    -0.79800
O1499       O  0.50201249  0.88541757  0.09261109    -0.81100
O1500       O  0.01005255  0.89507023  0.93201686    -0.81400
Eu1501     Eu  0.00629643  0.92532947  0.01477242     2.39200
O1502       O  0.96150587  0.95242607  0.07023602    -0.88900
O1503       O  0.54095209  0.97124201  0.96436943    -0.92500
C1504       C  0.00615642  0.90489078  0.88439297     1.02200
C1505       C  0.49911774  0.89086815  0.14087580     1.02000
C1506       C  0.60711663  0.92177118  0.02751142     1.02000
C1507       C  0.91426103  0.89089551  0.98175596     0.99800
H1508       H  0.55690286  0.95128995  0.09386702     0.29600
O1509       O  0.53905075  0.96621269  0.07291266    -1.01300
H1510       H  0.95163229  0.94577015  0.93699623     0.29600
O1511       O  0.96530982  0.96203386  0.96152697    -1.03800
O1512       O  0.99408036  0.56068764  0.17053492    -0.81000
O1513       O  0.99983817  0.57692397  0.87395398    -0.80600
O1514       O  0.60536164  0.01427652  0.10340758    -0.79000
O1515       O  0.88459042  0.97982015  0.09714404    -0.82400
O1516       O  0.88682634  0.49606515  0.93238665    -0.80200
O1517       O  0.61103065  0.51464423  0.94291831    -0.78900
O1518       O  0.54088050  0.61950652  0.04302040    -0.80400
O1519       O  0.91696182  0.59629010  0.01380314    -0.82300
O1520       O  0.59309890  0.58010936  0.04178175    -0.79000
O1521       O  0.87678679  0.54200458  0.01526159    -0.81700
O1522       O  0.56397457  0.00245973  0.16980660    -0.77500
O1523       O  0.56863638  0.50776439  0.87487531    -0.77500
O1524       O  0.93150261  0.50391312  0.86803127    -0.77100
O1525       O  0.92791480  0.98997311  0.16384529    -0.80600
O1526       O  0.98586134  0.60687827  0.10646893    -0.80100
O1527       O  0.99115802  0.61646559  0.94192475    -0.78400
Eu1528     Eu  0.99553773  0.99526427  0.12812877     2.39800
Eu1529     Eu  0.99936138  0.50719855  0.90883617     2.39600
Eu1530     Eu  0.57229637  0.01357706  0.02175942     2.38400
Eu1531     Eu  0.91985284  0.98811019  0.01572315     2.39900
Eu1532     Eu  0.98534744  0.57749248  0.02177887     2.39800
O1533       O  0.95402494  0.53481785  0.96485497    -0.92800
O1534       O  0.52729900  0.54108932  0.07364703    -0.91700
C1535       C  0.99103940  0.59657733  0.15387756     1.02400
C1536       C  0.99712438  0.61124235  0.89394002     1.01100
C1537       C  0.59886986  0.00964364  0.15134237     1.00500
C1538       C  0.89270693  0.98436611  0.14525654     1.02500
C1539       C  0.89583745  0.50089547  0.88484919     1.01400
C1540       C  0.60387166  0.51005579  0.89464978     1.00300
C1541       C  0.57714135  0.61268826  0.05028210     1.00300
C1542       C  0.88292345  0.57892007  0.01101854     1.02900
H1543       H  0.54830081  0.56964542  0.95036151     0.30300
O1544       O  0.53201047  0.55004233  0.96741635    -1.05000
H1545       H  0.93337479  0.54405409  0.09344847     0.32400
O1546       O  0.95199094  0.53075494  0.07341078    -1.07500
N1547       N  0.74079298  0.70117866  0.96644145    -0.36600
N1548       N  0.74284243  0.76703272  0.02637587    -0.57100
N1549       N  0.78041462  0.80637744  0.94415843    -0.36600
N1550       N  0.77773387  0.73592079  0.86831006    -0.57100
C1551       C  0.70790675  0.69448064  0.99308269     0.27000
C1552       C  0.73888060  0.67811272  0.92560829     0.27000
C1553       C  0.75909377  0.83480092  0.96293043     0.27000
C1554       C  0.78429396  0.81401402  0.89363254     0.27000
C1555       C  0.72120973  0.74441651  0.05808175     0.35600
C1556       C  0.74625570  0.80252059  0.04631854     0.35600
C1557       C  0.78843737  0.69854361  0.86628425     0.35600
C1558       C  0.80896810  0.75811087  0.85355048     0.35600
C1559       C  0.68482802  0.66600284  0.96865127    -0.21800
C1560       C  0.70493409  0.65525450  0.92618782    -0.21800
C1561       C  0.75068329  0.86176204  0.92403869    -0.21800
C1562       C  0.76707017  0.84864750  0.88031866    -0.21800
C1563       C  0.71411081  0.76410934  0.10234006    -0.22900
C1564       C  0.73043550  0.80109375  0.09511796    -0.22900
C1565       C  0.82472233  0.69685500  0.84376792    -0.22900
C1566       C  0.83798084  0.73499356  0.83659178    -0.22900
C1567       C  0.70008261  0.71166667  0.04044539    -0.18200
C1568       C  0.77241078  0.66960195  0.89964950    -0.18200
C1569       C  0.81358403  0.79760517  0.86589863    -0.18200
C1570       C  0.74436936  0.83511682  0.01305277    -0.18200
H1571       H  0.65735636  0.65291719  0.98118439     0.14700
H1572       H  0.69690130  0.63169904  0.90077977     0.14700
H1573       H  0.73454404  0.88817004  0.92694236     0.14700
H1574       H  0.76788816  0.86378110  0.84372265     0.14700
H1575       H  0.69511748  0.75466230  0.13324255     0.13000
H1576       H  0.72542427  0.82563871  0.11913192     0.12900
H1577       H  0.84210524  0.67129862  0.84055174     0.13000
H1578       H  0.86708964  0.74468428  0.82636253     0.12900
H1579       H  0.76599890  0.71670891  0.97793933     0.26200
H1580       H  0.79386419  0.78395730  0.96477341     0.26200
C1581       C  0.00048115  0.74441826  0.26720940    -0.02400
C1582       C  0.74945173  0.00261037  0.26744330    -0.02400
C1583       C  0.00182664  0.75818732  0.76713168    -0.02400
C1584       C  0.74604458  0.50198494  0.76569411    -0.02400
C1585       C  0.63593561  0.01245958  0.18393648    -0.05400
C1586       C  0.67157507  0.51889687  0.15859875    -0.32800
C1587       C  0.70790219  0.51908512  0.18403107     0.36400
C1588       C  0.71051099  0.01071200  0.23696437    -0.05800
C1589       C  0.67448402  0.00973139  0.26373269    -0.32700
C1590       C  0.63774223  0.00920924  0.23777041     0.36300
H1591       H  0.67217515  0.52362458  0.11750367     0.16700
O1592       O  0.74065662  0.52757081  0.15586841    -0.60200
H1593       H  0.67485293  0.00579378  0.30501194     0.16700
O1594       O  0.60422759  0.00473656  0.26549130    -0.60300
H1595       H  0.59712617  0.97647252  0.26458434     0.43700
H1596       H  0.73826709  0.55490078  0.14320609     0.43600
C1597       C  0.78735382  0.99784556  0.23468066    -0.05400
C1598       C  0.82386211  0.01573891  0.24933120    -0.32800
C1599       C  0.85857834  0.00983763  0.22290452     0.36400
C1600       C  0.85837218  0.98553688  0.18019738    -0.05800
C1601       C  0.82309482  0.46499353  0.16842615    -0.32700
C1602       C  0.78849513  0.46988062  0.19580181     0.36300
H1603       H  0.82631192  0.03407819  0.28238252     0.16700
O1604       O  0.89225603  0.02940331  0.23816165    -0.60200
H1605       H  0.82241670  0.44471058  0.13722201     0.16700
O1606       O  0.75628663  0.44652560  0.18439078    -0.60300
H1607       H  0.74976877  0.45185751  0.14780073     0.43700
H1608       H  0.90360559  0.01279511  0.26584461     0.43600
C1609       C  0.99808477  0.85418669  0.17317384    -0.05400
C1610       C  0.99092411  0.81783765  0.14981392    -0.32800
C1611       C  0.99118339  0.78218505  0.17777149     0.36400
C1612       C  0.99947907  0.78177261  0.23123495    -0.05800
C1613       C  0.50519200  0.81857829  0.25458548    -0.32700
C1614       C  0.50509708  0.85401866  0.22652359     0.36300
H1615       H  0.98436200  0.81678386  0.10912650     0.16700
O1616       O  0.97990492  0.74873288  0.15285879    -0.60200
H1617       H  0.51110812  0.81980415  0.29537458     0.16700
O1618       O  0.51382066  0.88809022  0.25124487    -0.60300
H1619       H  0.48823622  0.89983279  0.25667973     0.43700
H1620       H  0.99760273  0.74696184  0.12342012     0.43600
C1621       C  0.99631398  0.62988763  0.18948988    -0.05400
C1622       C  0.02511639  0.65875000  0.17812710    -0.32800
C1623       C  0.02728368  0.69465048  0.20332461     0.36400
C1624       C  0.99877852  0.70381971  0.23965773    -0.05800
C1625       C  0.47187239  0.67272451  0.25354291    -0.32700
C1626       C  0.47050247  0.63650279  0.22882835     0.36300
H1627       H  0.04597365  0.65363679  0.14857883     0.16700
O1628       O  0.05759406  0.72069968  0.19241061    -0.60200
H1629       H  0.45207196  0.67574062  0.28478656     0.16700
O1630       O  0.44318558  0.60831502  0.24307315    -0.60300
H1631       H  0.45630836  0.59236587  0.27001830     0.43700
H1632       H  0.05839705  0.72383078  0.15459548     0.43600
C1633       C  0.64133271  0.89802996  0.02963517    -0.05400
C1634       C  0.64117613  0.86547810  0.99866232    -0.32800
C1635       C  0.67497874  0.84548818  0.99294675     0.36400
C1636       C  0.70952798  0.85788605  0.01883761    -0.05800
C1637       C  0.70959560  0.88931389  0.05173788    -0.32700
C1638       C  0.67549624  0.90971755  0.05714662     0.36300
H1639       H  0.61528883  0.85658938  0.97681811     0.16700
O1640       O  0.67462131  0.81501827  0.95977066    -0.60200
H1641       H  0.73592496  0.89797737  0.07277389     0.16700
O1642       O  0.67551066  0.94044911  0.08982287    -0.60300
H1643       H  0.69033366  0.96199038  0.07209304     0.43700
H1644       H  0.67300469  0.79110166  0.98166230     0.43600
C1645       C  0.89395450  0.86375612  0.94755788    -0.05400
C1646       C  0.88149444  0.87795155  0.89929273    -0.32800
C1647       C  0.86133468  0.85332501  0.86519548     0.36400
C1648       C  0.85241871  0.81455034  0.88033994    -0.05800
C1649       C  0.87005719  0.79948716  0.92540302    -0.32700
C1650       C  0.89082911  0.82382478  0.95898996     0.36300
H1651       H  0.88663717  0.90839205  0.88854956     0.16700
O1652       O  0.84759621  0.86773613  0.81901037    -0.60200
H1653       H  0.86308787  0.77026355  0.93833733     0.16700
O1654       O  0.90446692  0.80913410  0.00497079    -0.60300
H1655       H  0.92891598  0.79611220  0.99684679     0.43700
H1656       H  0.83116271  0.88995823  0.82698103     0.43600
C1657       C  0.84944262  0.60254526  0.99560401    -0.05400
C1658       C  0.85584889  0.64274930  0.98969660    -0.32800
C1659       C  0.83150767  0.66453824  0.95811016     0.36400
C1660       C  0.79958526  0.64632695  0.93192551    -0.05800
C1661       C  0.78980355  0.60726152  0.94411730    -0.32700
C1662       C  0.81426694  0.58529566  0.97603823     0.36300
H1663       H  0.88138135  0.65721391  0.00675427     0.16700
O1664       O  0.83923015  0.70379986  0.95340234    -0.60200
H1665       H  0.76336744  0.59365600  0.92842731     0.16700
O1666       O  0.80477446  0.54654141  0.98471528    -0.60300
H1667       H  0.78741610  0.54588211  0.01471280     0.43700
H1668       H  0.86510245  0.70617867  0.93689503     0.43600
C1669       C  0.60288105  0.64432331  0.06855170    -0.05400
C1670       C  0.59708039  0.68247868  0.05058175    -0.32800
C1671       C  0.62847559  0.70934752  0.05028826     0.36400
C1672       C  0.66536947  0.69727732  0.06770764    -0.05800
C1673       C  0.66856575  0.66240504  0.09578048    -0.32700
C1674       C  0.63709921  0.63577265  0.09670153     0.36300
H1675       H  0.57016031  0.68993221  0.03084488     0.16700
O1676       O  0.62462536  0.74425355  0.02443846    -0.60200
H1677       H  0.69677083  0.65350282  0.11042867     0.16700
O1678       O  0.64175832  0.59974072  0.11933866    -0.60300
H1679       H  0.63705690  0.60336632  0.15623675     0.43700
H1680       H  0.62081114  0.76356261  0.05139042     0.43600
C1681       C  0.78689934  0.50195994  0.79535361    -0.05400
C1682       C  0.81757476  0.97683507  0.78294397    -0.32800
C1683       C  0.85433465  0.97795063  0.80855069     0.36400
C1684       C  0.86151243  0.50395244  0.84876149    -0.05800
C1685       C  0.83277406  0.53063722  0.85909119    -0.32700
C1686       C  0.79686610  0.53086481  0.83197912     0.36300
H1687       H  0.81403918  0.95672554  0.75191578     0.16700
O1688       O  0.88203768  0.95224533  0.79551234    -0.60200
H1689       H  0.83836535  0.55178146  0.88859120     0.16700
O1690       O  0.77097602  0.55888830  0.84305860    -0.60300
H1691       H  0.78288150  0.58382006  0.82972123     0.43700
H1692       H  0.89850803  0.96659310  0.76999146     0.43600
C1693       C  0.63919267  0.50584673  0.86115732    -0.05400
C1694       C  0.67533358  0.49557586  0.88377119    -0.32800
C1695       C  0.70953223  0.49199435  0.85480544     0.36400
C1696       C  0.70905038  0.50004709  0.80117664    -0.05800
C1697       C  0.67175023  0.00637849  0.77855620    -0.32700
C1698       C  0.63760153  0.00974860  0.80748141     0.36300
H1699       H  0.67716885  0.48945830  0.92460950     0.16700
O1700       O  0.74210381  0.47764818  0.87899579    -0.60200
H1701       H  0.66939871  0.01084593  0.73746426     0.16700
O1702       O  0.60342960  0.01889021  0.78259271    -0.60300
H1703       H  0.59309769  0.99400101  0.76823503     0.43700
H1704       H  0.74883215  0.49574171  0.90716088     0.43600
C1705       C  0.00181297  0.64792702  0.86104046    -0.05400
C1706       C  0.99674632  0.64733933  0.80759608    -0.32800
C1707       C  0.99839036  0.68216799  0.77743868     0.36400
C1708       C  0.00367498  0.71941600  0.80047026    -0.05800
C1709       C  0.51276492  0.71910772  0.85339464    -0.32700
C1710       C  0.51189190  0.68435407  0.88315039     0.36300
H1711       H  0.99073671  0.61984701  0.78895092     0.16700
O1712       O  0.99368913  0.67967192  0.72526404    -0.60200
H1713       H  0.52116429  0.74583532  0.87239408     0.16700
O1714       O  0.52247733  0.68640495  0.93396735    -0.60300
H1715       H  0.49990884  0.69756197  0.95099730     0.43700
H1716       H  0.96672305  0.66911571  0.71918427     0.43600
C1717       C  0.00309923  0.87071851  0.84966019    -0.05400
C1718       C  0.97923799  0.83854355  0.86501223    -0.32800
C1719       C  0.97805744  0.80329664  0.83874531     0.36400
C1720       C  0.00377791  0.79733285  0.79791595    -0.05800
C1721       C  0.52634508  0.83084436  0.78112407    -0.32700
C1722       C  0.52621043  0.86687675  0.80651980     0.36300
H1723       H  0.96100025  0.84069958  0.89810000     0.16700
O1724       O  0.95182400  0.77452782  0.85425981    -0.60200
H1725       H  0.54408906  0.82967782  0.74743611     0.16700
O1726       O  0.54927843  0.89772167  0.78915874    -0.60300
H1727       H  0.57569389  0.89307924  0.80371527     0.43700
H1728       H  0.92594158  0.78372252  0.84271411     0.43600
C1729       C  0.88749663  0.77229804  0.68445035    -0.05400
C1730       C  0.89077387  0.74389871  0.72327888    -0.32800
C1731       C  0.92643524  0.73809683  0.75001446     0.36400
C1732       C  0.96132055  0.76044544  0.73705768    -0.05800
C1733       C  0.95661123  0.79057707  0.69974762    -0.32700
C1734       C  0.92086179  0.79636617  0.67370954     0.36300
H1735       H  0.86559255  0.72516028  0.73231711     0.16700
O1736       O  0.92552438  0.71243503  0.79114429    -0.60200
H1737       H  0.98120245  0.80996444  0.69033321     0.16700
O1738       O  0.91912090  0.82545736  0.63683082    -0.60300
H1739       H  0.91283588  0.84923837  0.65545640     0.43700
H1740       H  0.91564098  0.68699450  0.77789790     0.43600
C1741       C  0.53921517  0.75609486  0.73315809    -0.05400
C1742       C  0.53696448  0.75032471  0.67997333    -0.32800
C1743       C  0.57055903  0.74630039  0.65053235     0.36400
C1744       C  0.60862597  0.74692525  0.67346179    -0.05800
C1745       C  0.61119945  0.75240759  0.72651284    -0.32700
C1746       C  0.57750430  0.75709197  0.75595235     0.36300
H1747       H  0.50899795  0.74782189  0.66037557     0.16700
O1748       O  0.56540996  0.74269889  0.59863664    -0.60200
H1749       H  0.63955479  0.75324963  0.74558294     0.16700
O1750       O  0.58236375  0.76214046  0.80765919    -0.60300
H1751       H  0.59399536  0.78884898  0.81132908     0.43700
H1752       H  0.55951468  0.71453386  0.59343533     0.43600
C1753       C  0.75768032  0.61773218  0.68502910    -0.05400
C1754       C  0.78038115  0.58607428  0.67208151    -0.32800
C1755       C  0.77637709  0.54938364  0.69672418     0.36400
C1756       C  0.74813356  0.54226778  0.73512691    -0.05800
C1757       C  0.72645358  0.57506686  0.74928528    -0.32700
C1758       C  0.73068957  0.61186805  0.72443721     0.36300
H1759       H  0.80128156  0.58948702  0.64159516     0.16700
O1760       O  0.79934319  0.52001627  0.68129253    -0.60200
H1761       H  0.70674477  0.57329291  0.78107380     0.16700
O1762       O  0.70759528  0.64154472  0.73846659    -0.60300
H1763       H  0.68466245  0.64025929  0.71474387     0.43700
H1764       H  0.82630723  0.52754337  0.69258478     0.43600
C1765       C  0.73410111  0.89407106  0.67233654    -0.05400
C1766       C  0.72577839  0.93099454  0.65047762    -0.32800
C1767       C  0.72821392  0.96565713  0.67895489     0.36400
C1768       C  0.74019574  0.96488542  0.73142209    -0.05800
C1769       C  0.74451213  0.92719753  0.75417850    -0.32700
C1770       C  0.74261861  0.89267587  0.72540951     0.36300
H1771       H  0.71722426  0.93338463  0.61043304     0.16700
O1772       O  0.71613648  0.99945714  0.65553477    -0.60200
H1773       H  0.75124444  0.92467756  0.79475685     0.16700
O1774       O  0.75019752  0.85783345  0.74965942    -0.60300
H1775       H  0.72448867  0.84749710  0.76173228     0.43700
H1776       H  0.73338479  0.00408155  0.62574694     0.43600
C1777       C  0.95631232  0.59931160  0.51559498    -0.05400
C1778       C  0.92649476  0.59097673  0.55025854    -0.32800
C1779       C  0.89903872  0.61881324  0.55925098     0.36400
C1780       C  0.90204062  0.65562128  0.53405465    -0.05800
C1781       C  0.93534375  0.66567259  0.50548067    -0.32700
C1782       C  0.96263087  0.63751143  0.49617130     0.36300
H1783       H  0.92180838  0.56153228  0.56549021     0.16700
O1784       O  0.86786142  0.60892593  0.58977642    -0.60200
H1785       H  0.93814895  0.69386580  0.48614021     0.16700
O1786       O  0.99225308  0.64597973  0.46265574    -0.60300
H1787       H  0.01616247  0.64898424  0.48439148     0.43700
H1788       H  0.85099997  0.59071588  0.56942730     0.43600
C1789       C  0.65654186  0.59453196  0.51040179    -0.05400
C1790       C  0.63473977  0.58976428  0.46525686    -0.32800
C1791       C  0.61588913  0.55427909  0.45525750     0.36400
C1792       C  0.61755075  0.52337495  0.49181671    -0.05800
C1793       C  0.64114898  0.52740004  0.53588053    -0.32700
C1794       C  0.66125000  0.56281301  0.54490010     0.36300
H1795       H  0.63223824  0.61372430  0.43768016     0.16700
O1796       O  0.59242556  0.55132880  0.41225367    -0.60200
H1797       H  0.64187124  0.50410432  0.56461712     0.16700
O1798       O  0.68302975  0.56711341  0.58909964    -0.60300
H1799       H  0.71026240  0.56240369  0.57932427     0.43700
H1800       H  0.61032051  0.54591606  0.38406939     0.43600
C1801       C  0.60358404  0.83430909  0.44540617    -0.05400
C1802       C  0.56559504  0.83512992  0.46385059    -0.32800
C1803       C  0.53630677  0.85245814  0.43400665     0.36400
C1804       C  0.54487183  0.86733112  0.38429720    -0.05800
C1805       C  0.58012108  0.85755490  0.36233633    -0.32700
C1806       C  0.61049272  0.84433237  0.39377855     0.36300
H1807       H  0.55944532  0.82533506  0.50271083     0.16700
O1808       O  0.50125475  0.85927718  0.45606031    -0.60200
H1809       H  0.58675052  0.86765897  0.32372640     0.16700
O1810       O  0.64734894  0.84334853  0.37450408    -0.60300
H1811       H  0.65923253  0.86956414  0.38123497     0.43700
H1812       H  0.50640243  0.88210175  0.47809241     0.43600
C1813       C  0.84822751  0.91071914  0.50416122    -0.05400
C1814       C  0.88905992  0.91102238  0.50758380    -0.32800
C1815       C  0.91094639  0.93578877  0.47536279     0.36400
C1816       C  0.89166449  0.95802092  0.43695552    -0.05800
C1817       C  0.85198873  0.96463341  0.44228867    -0.32700
C1818       C  0.83018426  0.94191423  0.47739367     0.36300
H1819       H  0.90388226  0.88949649  0.53113049     0.14100
O1820       O  0.95092132  0.93485729  0.47770730    -0.60200
H1821       H  0.83725286  0.98454415  0.41634008     0.16700
O1822       O  0.79053702  0.94613055  0.47825646    -0.60300
H1823       H  0.78620887  0.96292890  0.50784696     0.43700
H1824       H  0.95935633  0.95734320  0.49889505     0.43600
C1825       C  0.61573805  0.73675706  0.34858266    -0.05400
C1826       C  0.58336347  0.71238213  0.36196045    -0.32800
C1827       C  0.54674380  0.71529512  0.33719414     0.36400
C1828       C  0.54060198  0.74353132  0.29765889    -0.05800
C1829       C  0.57411253  0.76671954  0.28272360    -0.32700
C1830       C  0.61089684  0.76349908  0.30750438     0.36300
H1831       H  0.58620894  0.69095751  0.39285497     0.16700
O1832       O  0.51712128  0.68962715  0.35151900    -0.60200
H1833       H  0.57278426  0.78694519  0.25046180     0.16700
O1834       O  0.64137671  0.78784857  0.29240720    -0.60300
H1835       H  0.65222006  0.77550612  0.26206728     0.43700
H1836       H  0.50926014  0.69795708  0.38578643     0.43600
C1837       C  0.89468152  0.76108803  0.36090198    -0.05400
C1838       C  0.89152521  0.75047559  0.30940810    -0.32800
C1839       C  0.92488975  0.74592575  0.27947146     0.36400
C1840       C  0.96341106  0.74931044  0.30110545    -0.05800
C1841       C  0.96635398  0.76227879  0.35189365    -0.32700
C1842       C  0.93305457  0.76807775  0.38136683     0.36300
H1843       H  0.86292846  0.74571098  0.29182899     0.16700
O1844       O  0.91935982  0.73695019  0.22892323    -0.60200
H1845       H  0.99465666  0.76909614  0.36910052     0.16700
O1846       O  0.93873444  0.78178429  0.42995744    -0.60300
H1847       H  0.94785752  0.75925493  0.45082331     0.43700
H1848       H  0.91138022  0.76154285  0.21162969     0.43600
C1849       C  0.74875049  0.88605361  0.34545150    -0.05400
C1850       C  0.71916027  0.89432631  0.31016212    -0.32800
C1851       C  0.71783992  0.93099213  0.28487495     0.36400
C1852       C  0.74582742  0.96196286  0.29699781    -0.05800
C1853       C  0.77664074  0.95175559  0.33098815    -0.32700
C1854       C  0.77864700  0.91430069  0.35354644     0.36300
H1855       H  0.69683872  0.87212995  0.30175491     0.16700
O1856       O  0.69124115  0.93418499  0.24522850    -0.60200
H1857       H  0.80022615  0.97273107  0.33866814     0.16700
O1858       O  0.81057685  0.90499177  0.38297105    -0.60300
H1859       H  0.82672776  0.88923308  0.36076236     0.43700
H1860       H  0.66511969  0.92943937  0.26049209     0.43600
C1861       C  0.75927608  0.60936943  0.36353620    -0.05400
C1862       C  0.76457348  0.61138733  0.31050478    -0.32800
C1863       C  0.76195686  0.57764187  0.28043966     0.36400
C1864       C  0.75412782  0.53968843  0.30263228    -0.05800
C1865       C  0.74807368  0.53800341  0.35589395    -0.32700
C1866       C  0.75025507  0.57188412  0.38581661     0.36300
H1867       H  0.77093785  0.63939429  0.29188312     0.16700
O1868       O  0.76677964  0.58225790  0.22865185    -0.60200
H1869       H  0.74011797  0.51055797  0.37479804     0.16700
O1870       O  0.74235563  0.56786949  0.43700744    -0.60300
H1871       H  0.71356504  0.56417001  0.43871605     0.43700
H1872       H  0.79457419  0.59049238  0.22407712     0.43600
loop_ 
_geom_bond_atom_site_label_1 
_geom_bond_atom_site_label_2 
_geom_bond_distance 
_geom_bond_site_symmetry_2 
_ccdc_geom_bond_type 
O1           C12   1.309       .  A
O1          Eu37   2.556       .  S
O2           C13   1.306       .  A
O2          Eu36   2.541       .  S
O3           C14   1.284       .  A
O3           Eu9   2.419       .  S
O4           C15   1.278       .  A
O4           Eu9   2.399       .  S
O5           C15   1.290       .  A
O5          Eu39   2.459       .  S
O6           C14   1.288       .  A
O6          Eu38   2.451       .  S
O7           C13   1.283       .  A
O7           Eu9   2.408       .  S
O8           C12   1.288       .  A
O8           Eu9   2.448       .  S
Eu9          O19   2.338       .  S
Eu9          O11   2.339       .  S
Eu9          O10   2.353       .  S
Eu9          O17   2.340       .  S
O10         Eu39   2.332       .  S
O10         Eu36   2.379       .  S
O11         Eu37   2.369       .  S
O11         Eu38   2.359       .  S
C12         C457   1.517       .  S
C13         C349   1.497       .  S
C14         C376   1.466       .  S
C15         C385   1.452       .  S
H16          O17   0.965       .  S
O17         Eu38   2.355       .  S
O17         Eu36   2.381       .  S
H18          O19   0.964       .  S
O19         Eu37   2.374       .  S
O19         Eu39   2.341       .  S
O20          C43   1.306       .  A
O20         Eu36   2.537       .  S
O21          C44   1.303       .  A
O21         Eu37   2.527       .  S
O22          C45   1.284       .  A
O22         Eu38   2.415       .  S
O23          C46   1.289       .  A
O23         Eu39   2.446       .  S
O24          C47   1.288       .  A
O24         Eu39   2.435       .  S
O25          C48   1.288       .  A
O25         Eu38   2.441       .  S
O26          C49   1.281       .  A
O26         Eu40   2.409       .  S
O27          C50   1.292       .  A
O27         Eu40   2.471       .  S
O28          C49   1.294       .  A
O28         Eu38   2.471       .  S
O29          C50   1.280       .  A
O29         Eu39   2.409       .  S
O30          C45   1.310       .  A
O30         Eu36   2.560       .  S
O31          C48   1.308       .  A
O31         Eu37   2.548       .  S
O32          C47   1.307       .  A
O32         Eu37   2.544       .  S
O33          C46   1.308       .  A
O33         Eu36   2.551       .  S
O34          C43   1.294       .  A
O34         Eu40   2.469       .  S
O35          C44   1.287       .  A
O35         Eu40   2.431       .  S
Eu36         O54   2.388       .  S
Eu36         O42   2.371       .  S
Eu37         O41   2.364       .  S
Eu37         O52   2.387       .  S
Eu38         O52   2.335       .  S
Eu38         O42   2.350       .  S
Eu39         O41   2.340       .  S
Eu39         O54   2.364       .  S
Eu40         O41   2.326       .  S
Eu40         O52   2.371       .  S
Eu40         O54   2.340       .  S
Eu40         O42   2.348       .  S
C43         C361   1.523       .  S
C44         C445   1.480       .  S
C45         C325   1.500       .  S
C46         C340   1.519       .  S
C47         C421   1.504       .  S
C48         C433   1.517       .  S
C49         C409   1.477       .  S
C50         C397   1.463       .  S
H51          O52   0.967       .  S
H53          O54   0.966       .  S
N55          C60   1.342       .  A
N55         C995   1.341       .  A
N55          H87   1.042       .  S
N56          C64   1.345       .  A
N56         C531   1.347       .  A
N57          C62   1.349       .  A
N57         C997   1.352       .  A
N57          H88   1.043       .  S
N58          C66   1.337       .  A
N58         C533   1.339       .  A
C59         N991   1.341       .  A
C59          C67   1.389       .  A
C59          C75   1.398   1_545  A
C60          C76   1.405       .  A
C60          C68   1.385       .  A
C61         N993   1.352       .  A
C61          C69   1.384       .  A
C61          C78   1.409   1_655  A
C62          C77   1.415       .  A
C62          C70   1.391       .  A
C63         N524   1.348       .  A
C63          C75   1.406       .  A
C63          C71   1.384       .  A
C64          C78   1.399       .  A
C64          C72   1.388       .  A
C65         N526   1.339       .  A
C65          C73   1.388       .  A
C65          C76   1.412       .  A
C66          C74   1.385       .  A
C66          C77   1.389       .  A
C67        C1004   1.383       .  A
C67          H79   1.082       .  S
C68        C1003   1.383       .  A
C68          H80   1.082       .  S
C69        C1006   1.380       .  A
C69          H81   1.082       .  S
C70        C1005   1.380       .  A
C70          H82   1.081       .  S
C71         C540   1.374       .  A
C71          H83   1.082       .  S
C72         C539   1.374       .  A
C72          H84   1.081       .  S
C73         C542   1.380       .  A
C73          H85   1.082       .  S
C74         C541   1.380       .  A
C74          H86   1.082       .  S
C75         C388   1.468   1_565  S
C76         C373   1.464       .  S
C77         C412   1.485       .  S
C78         C400   1.481       .  S
O89         C100   1.308       .  A
O89        Eu593   2.554       .  S
O90        C1037   1.305       .  A
O90        Eu124   2.533       .  S
O91         C102   1.288       .  A
O91       Eu1033   2.440       .  S
O92         C103   1.284       .  A
O92         Eu97   2.431   1_556  S
O93         C103   1.288       .  A
O93        Eu127   2.442   1_556  S
O94         C102   1.278       .  A
O94        Eu126   2.393       .  S
O95         C101   1.285   1_455  A
O95       Eu1033   2.417       .  S
O96         C100   1.287       .  A
O96         Eu97   2.430   1_556  S
Eu97       O1027   2.440       .  S
Eu97       O1031   2.421       .  S
Eu97        O107   2.337   1_554  S
Eu97         O98   2.359       .  S
Eu97       O1035   2.347   1_554  S
Eu97       O1041   2.340       .  S
O98        Eu127   2.351       .  S
O98        Eu124   2.394       .  S
O99        Eu126   2.333   1_556  S
O99       Eu1033   2.345   1_556  S
O99       Eu1529   2.367   1_455  S
C100        C313   1.500       .  S
C101       O1026   1.305       .  A
C101       C1141   1.501       .  S
C102        C229   1.451       .  S
C103        C241   1.457       .  S
H104        O105   0.965       .  S
O105       Eu126   2.353       .  S
O105      Eu1033   2.339       .  S
O105      Eu1060   2.363   1_455  S
H106        O107   0.964       .  S
O107       Eu127   2.339   1_556  S
O107       Eu593   2.352       .  S
O108        C131   1.303       .  A
O108       Eu592   2.525   1_545  S
O109        C132   1.306       .  A
O109       Eu125   2.536       .  S
O110        C133   1.281       .  A
O110       Eu126   2.398       .  S
O111        C134   1.294       .  A
O111       Eu127   2.472       .  S
O112        C135   1.291   1_565  A
O112       Eu595   2.456   1_556  S
O113        C136   1.292       .  A
O113       Eu594   2.464   1_556  S
O114        C137   1.282       .  A
O114      Eu1064   2.411   1_455  S
O115        C138   1.292       .  A
O115       Eu128   2.455       .  S
O116        C137   1.286       .  A
O116       Eu594   2.427       .  S
O117        C138   1.278       .  A
O117       Eu595   2.394   1_545  S
O118        C133   1.310       .  A
O118      Eu1060   2.574   1_455  S
O119        C136   1.305       .  A
O119      Eu1061   2.536   1_455  S
O120        C135   1.306       .  A
O120       Eu125   2.538       .  S
O121        C134   1.302       .  A
O121       Eu124   2.513       .  S
O122        C131   1.291       .  A
O122       Eu128   2.453       .  S
O123        C132   1.291       .  A
O123       Eu128   2.457   1_556  S
Eu124       O576   2.526       .  S
Eu124      O1054   2.572       .  S
Eu124      O1041   2.362       .  S
Eu124       O610   2.391       .  S
Eu124      O1534   2.349       .  S
Eu125       O557   2.553   1_545  S
Eu125      O1055   2.537       .  S
Eu125       O129   2.387       .  S
Eu125      O1503   2.367   1_545  S
Eu125       O575   2.352   1_545  S
Eu125      O1076   2.384       .  S
Eu126       O581   2.461   1_554  S
Eu126       O584   2.430       .  S
Eu126       O608   2.336   1_554  S
Eu126       O598   2.319       .  S
Eu127       O580   2.453   1_554  S
Eu127       O585   2.396       .  S
Eu127       O597   2.361   1_554  S
Eu127       O610   2.354       .  S
Eu128      O1050   2.414       .  S
Eu128       O129   2.332   1_554  S
Eu128       O142   2.349       .  S
Eu128      O1076   2.378   1_554  S
Eu128      O1066   2.330       .  S
O129       Eu595   2.361   1_546  S
O130      Eu1528   2.350   1_445  S
O130       Eu594   2.318       .  S
O130      Eu1064   2.330   1_455  S
C131        C217   1.495       .  S
C132        C301   1.511       .  S
C133        C181   1.517       .  S
C134        C196   1.505       .  S
C135        C280   1.499       .  S
C136        C289   1.519       .  S
C137        C265   1.456       .  S
C138        C253   1.471   1_554  S
H139        O140   0.965       .  S
O140      Eu1061   2.384   1_455  S
O140       Eu594   2.335   1_556  S
O140      Eu1064   2.376   1_456  S
H141        O142   0.966       .  S
O142       Eu592   2.391   1_545  S
O142       Eu595   2.355   1_545  S
N143        C148   1.342       .  A
N143        C147   1.344       .  A
N143        H175   1.042       .  S
N144        C151   1.337       .  A
N144        C152   1.336       .  A
N145        C150   1.347       .  A
N145        C149   1.345       .  A
N145        H176   1.044       .  S
N146        C153   1.349       .  A
N146        C154   1.348       .  A
C147        C155   1.394       .  A
C147        C163   1.416   1_556  A
C148        C164   1.387       .  A
C148        C156   1.379       .  A
C149        C157   1.390       .  A
C149        C166   1.412   1_556  A
C150        C165   1.391       .  A
C150        C158   1.380       .  A
C151        C163   1.397       .  A
C151        C159   1.382       .  A
C152        C166   1.402       .  A
C152        C160   1.393       .  A
C153        C161   1.388       .  A
C153        C164   1.409       .  A
C154        C162   1.379       .  A
C154        C165   1.404       .  A
C155        C156   1.381       .  A
C155        H167   1.081       .  S
C156        H168   1.083       .  S
C157        C158   1.374       .  A
C157        H169   1.083       .  S
C158        H170   1.077       .  S
C159        C160   1.378       .  A
C159        H171   1.082       .  S
C160        H172   1.082       .  S
C161        C162   1.379       .  A
C161        H173   1.083       .  S
C162        H174   1.076       .  S
C163        C268   1.461       .  S
C164        C256   1.485       .  S
C165        C244   1.480       .  S
C166        C232   1.461       .  S
C177        C208   1.572       .  S
C177        C220   1.581       .  S
C177        C436   1.577       .  S
C177       C1360   1.580       .  S
C178        C184   1.570       .  S
C178        C193   1.584       .  S
C178        C448   1.579       .  S
C178        C928   1.581       .  S
C179        C304   1.574       .  S
C179        C316   1.580       .  S
C179        C328   1.585       .  S
C179       C1273   1.578       .  S
C180        C277   1.588       .  S
C180        C292   1.583       .  S
C180        C352   1.579       .  S
C180        C832   1.587   1_545  S
C181        C186   1.408       .  A
C181        C650   1.418       .  A
C182        C183   1.399       .  A
C182        C649   1.417       .  A
C182        H187   1.082       .  S
C183        C652   1.411       .  A
C183        O188   1.372       .  S
C184        C185   1.428       .  A
C184        C651   1.411       .  A
C185        C186   1.418       .  A
C185        H189   1.083       .  S
C186        O190   1.371       .  S
O188        H192   0.992       .  S
O190        H191   0.992       .  S
C193        C194   1.423       .  A
C193        C666   1.425       .  A
C194        C195   1.409       .  A
C194        H199   1.081       .  S
C195        C196   1.408       .  A
C195        O200   1.372       .  S
C196        C665   1.406       .  A
C197        C198   1.412       .  A
C197        C664   1.407       .  A
C197        H201   1.084       .  S
C198        C661   1.425       .  A
C198        O202   1.373       .  S
O200        H204   0.992       .  S
O202        H203   0.992       .  S
C205       C1037   1.503       .  S
C205        C206   1.412       .  A
C205       C1146   1.403       .  A
C206        C207   1.409       .  A
C206        H211   1.083       .  S
C207        C208   1.420       .  A
C207        O212   1.373       .  S
C208       C1145   1.424       .  A
C209        C210   1.404       .  A
C209       C1144   1.424   1_455  A
C209        H213   1.082       .  S
C210       C1141   1.403   1_455  A
C210        O214   1.370       .  S
O212        H216   0.992       .  S
O214        H215   0.991   1_455  S
C217        C218   1.403       .  A
C217       C1158   1.404       .  A
C218        C219   1.409       .  A
C218        H223   1.083       .  S
C219        C220   1.422       .  A
C219        O224   1.375       .  S
C220       C1157   1.427       .  A
C221        C222   1.413       .  A
C221       C1156   1.427       .  A
C221        H225   1.080       .  S
C222       C1153   1.403       .  A
C222        O226   1.371       .  S
O224        H228   0.992       .  S
O226        H227   0.992       .  S
C229        C230   1.394   1_554  A
C229        C234   1.413       .  A
C230        C231   1.379       .  A
C230        H235   1.084       .  S
C231        C232   1.410   1_556  A
C231        O236   1.373       .  S
C232        C233   1.394       .  A
C233        C234   1.394       .  A
C233        H237   1.084       .  S
C234        O238   1.372       .  S
O236        H240   0.989       .  S
O238        H239   0.992       .  S
C241        C242   1.405       .  A
C241        C246   1.396       .  A
C242        C243   1.399       .  A
C242        H247   1.084       .  S
C243        C244   1.404       .  A
C243        O248   1.374       .  S
C244        C245   1.409       .  A
C245        C246   1.394       .  A
C245        H249   1.071       .  S
C246        O250   1.372   1_556  S
O248        H252   0.992       .  S
O250        H251   0.992   1_554  S
C253        C254   1.393       .  A
C253        C258   1.416       .  A
C254        C255   1.386       .  A
C254        H259   1.084   1_556  S
C255        C256   1.413       .  A
C255        O260   1.367       .  S
C256        C257   1.401       .  A
C257        C258   1.398       .  A
C257        H261   1.082       .  S
C258        O262   1.372       .  S
O260        H264   0.993       .  S
O262        H263   0.992   1_556  S
C265        C266   1.399       .  A
C265        C270   1.409       .  A
C266        C267   1.391       .  A
C266        H271   1.084       .  S
C267        C268   1.408       .  A
C267        O272   1.370       .  S
C268        C269   1.394       .  A
C269        C270   1.387       .  A
C269        H273   1.084       .  S
C270        O274   1.370       .  S
O272        H276   0.992       .  S
O274        H275   0.992       .  S
C277        C282   1.423       .  A
C277        C746   1.428   1_545  A
C278        C279   1.415       .  A
C278        C745   1.428       .  A
C278        H283   1.079       .  S
C279        C748   1.404       .  A
C279        O284   1.371       .  S
C280        C281   1.402       .  A
C280        C747   1.405   1_545  A
C281        C282   1.408       .  A
C281        H285   1.080       .  S
C282        O286   1.370       .  S
O284        H288   0.992       .  S
O286        H287   0.992       .  S
C289        C290   1.414   1_545  A
C289        C762   1.410       .  A
C290        C291   1.417       .  A
C290        H295   1.083       .  S
C291        C292   1.421   1_565  A
C291        O296   1.373       .  S
C292        C761   1.422       .  A
C293        C294   1.414       .  A
C293        C760   1.422       .  A
C293        H297   1.083       .  S
C294        C757   1.409       .  A
C294        O298   1.371       .  S
O296        H300   0.992       .  S
O298        H299   0.992       .  S
C301        C302   1.404       .  A
C301       C1242   1.419       .  A
C302        C303   1.415       .  A
C302        H307   1.083       .  S
C303        C304   1.430       .  A
C303        O308   1.374       .  S
C304       C1241   1.409       .  A
C305        C306   1.406       .  A
C305       C1240   1.409       .  A
C305        H309   1.080       .  S
C306       C1237   1.419       .  A
C306        O310   1.372       .  S
O308        H312   0.992       .  S
O310        H311   0.992   1_455  S
C313        C314   1.405       .  A
C313       C1254   1.404       .  A
C314        C315   1.404       .  A
C314        H319   1.081       .  S
C315        C316   1.419       .  A
C315        O320   1.370       .  S
C316       C1253   1.428       .  A
C317        C318   1.416       .  A
C317       C1252   1.428       .  A
C317        H321   1.081       .  S
C318       C1249   1.404       .  A
C318        O322   1.371       .  S
O320        H324   0.991       .  S
O322        H323   0.992       .  S
C325        C326   1.395       .  A
C325        C330   1.414       .  A
C326        C327   1.414       .  A
C326        H331   1.083       .  S
C327        C328   1.438       .  A
C327        O332   1.373       .  S
C328        C329   1.415       .  A
C329        C330   1.407       .  A
C329        H333   1.083       .  S
C330        O334   1.372       .  S
O332        H336   0.992       .  S
O334        H335   0.992       .  S
C337        C338   1.408       .  A
C337        C342   1.430       .  A
C337       C1115   1.578       .  S
C338        C339   1.409       .  A
C338        H343   1.080       .  S
C339        C340   1.425       .  A
C339        O344   1.372       .  S
C340        C341   1.404       .  A
C341        C342   1.415       .  A
C341        H345   1.083       .  S
C342        O346   1.372       .  S
O344        H348   0.992       .  S
O346        H347   0.992       .  S
C349        C350   1.409       .  A
C349        C354   1.403       .  A
C350        C351   1.404       .  A
C350        H355   1.082       .  S
C351        C352   1.418       .  A
C351        O356   1.372       .  S
C352        C353   1.429       .  A
C353        C354   1.410       .  A
C353        H357   1.079       .  S
C354        O358   1.372       .  S
O356        H360   0.992       .  S
O358        H359   0.992       .  S
C361        C362   1.413       .  A
C361        C366   1.411       .  A
C362        C363   1.416       .  A
C362        H367   1.083       .  S
C363        C364   1.423       .  A
C363        O368   1.371       .  S
C364        C365   1.421       .  A
C364        C648   1.586       .  S
C365        C366   1.416       .  A
C365        H369   1.083       .  S
C366        O370   1.370       .  S
O368        H372   0.992       .  S
O370        H371   0.992       .  S
C373        C374   1.395       .  A
C373        C378   1.404       .  A
C374        C375   1.391       .  A
C374        H379   1.084       .  S
C375        C376   1.411       .  A
C375        O380   1.373       .  S
C376        C377   1.403       .  A
C377        C378   1.396       .  A
C377        H381   1.082       .  S
C378        O382   1.371       .  S
O380        H384   0.992       .  S
O382        H383   0.992       .  S
C385        C386   1.394       .  A
C385        C390   1.408       .  A
C386        C387   1.386       .  A
C386        H391   1.084       .  S
C387        C388   1.411       .  A
C387        O392   1.373       .  S
C388        C389   1.401       .  A
C389        C390   1.398       .  A
C389        H393   1.084       .  S
C390        O394   1.371       .  S
O392        H396   0.992       .  S
O394        H395   0.992       .  S
C397        C398   1.397       .  A
C397        C402   1.406       .  A
C398        C399   1.400       .  A
C398        H403   1.084       .  S
C399        C400   1.416       .  A
C399        O404   1.371       .  S
C400        C401   1.401       .  A
C401        C402   1.395       .  A
C401        H405   1.084       .  S
C402        O406   1.370       .  S
O404        H408   0.992       .  S
O406        H407   0.992       .  S
C409        C410   1.399       .  A
C409        C414   1.418       .  A
C410        C411   1.391       .  A
C410        H415   1.084       .  S
C411        C412   1.414       .  A
C411        O416   1.371       .  S
C412        C413   1.396       .  A
C413        C414   1.398       .  A
C413        H417   1.082       .  S
C414        O418   1.372       .  S
O416        H420   0.992       .  S
O418        H419   0.992       .  S
C421        C422   1.409       .  A
C421        C426   1.406       .  A
C422        C423   1.407       .  A
C422        H427   1.084       .  S
C423        C424   1.417       .  A
C423        O428   1.371       .  S
C424        C425   1.429       .  A
C424       C1113   1.581       .  S
C425        C426   1.412       .  A
C425        H429   1.080       .  S
C426        O430   1.371       .  S
O428        H432   0.991       .  S
O430        H431   0.992       .  S
C433        C434   1.403       .  A
C433        C438   1.425       .  A
C434        C435   1.411       .  A
C434        H439   1.083       .  S
C435        C436   1.428       .  A
C435        O440   1.371       .  S
C436        C437   1.410       .  A
C437        C438   1.411       .  A
C437        H441   1.082       .  S
C438        O442   1.372       .  S
O440        H444   0.992       .  S
O442        H443   0.991       .  S
C445        C446   1.390       .  A
C445        C450   1.401       .  A
C446        C447   1.408       .  A
C446        H451   1.083       .  S
C447        C448   1.442       .  A
C447        O452   1.372       .  S
C448        C449   1.415       .  A
C449        C450   1.404       .  A
C449        H453   1.082       .  S
C450        O454   1.368       .  S
O452        H456   0.993       .  S
O454        H455   0.991       .  S
C457        C458   1.400       .  A
C457        C462   1.424       .  A
C458        C459   1.413       .  A
C458        H463   1.083       .  S
C459        C460   1.431       .  A
C459        O464   1.371       .  S
C460        C461   1.410       .  A
C460        C646   1.581       .  S
C461        C462   1.415       .  A
C461        H465   1.081       .  S
C462        O466   1.372       .  S
O464        H468   0.992       .  S
O466        H467   0.992       .  S
O469        C480   1.309       .  A
O469       Eu505   2.555       .  S
O470        C481   1.306       .  A
O470       Eu504   2.539       .  S
O471        C482   1.284       .  A
O471       Eu477   2.417       .  S
O472        C483   1.278       .  A
O472       Eu477   2.399       .  S
O473        C483   1.290       .  A
O473       Eu507   2.456       .  S
O474        C482   1.287       .  A
O474       Eu506   2.450       .  S
O475        C481   1.283       .  A
O475       Eu477   2.410       .  S
O476        C480   1.288       .  A
O476       Eu477   2.448       .  S
Eu477       O487   2.338       .  S
Eu477       O479   2.339       .  S
Eu477       O478   2.353       .  S
Eu477       O485   2.340       .  S
O478       Eu507   2.331       .  S
O478       Eu504   2.378       .  S
O479       Eu505   2.368       .  S
O479       Eu506   2.357       .  S
C480        C925   1.517       .  S
C481        C817   1.496       .  S
C482        C844   1.466       .  S
C483        C853   1.452       .  S
H484        O485   0.965       .  S
O485       Eu506   2.354       .  S
O485       Eu504   2.382       .  S
H486        O487   0.964       .  S
O487       Eu505   2.376       .  S
O487       Eu507   2.342       .  S
O488        C511   1.306       .  A
O488       Eu504   2.538       .  S
O489        C512   1.304       .  A
O489       Eu505   2.530       .  S
O490        C513   1.284       .  A
O490       Eu506   2.414       .  S
O491        C514   1.288       .  A
O491       Eu507   2.444       .  S
O492        C515   1.287       .  A
O492       Eu507   2.433       .  S
O493        C516   1.287       .  A
O493       Eu506   2.440       .  S
O494        C517   1.281       .  A
O494       Eu508   2.409       .  S
O495        C518   1.293       .  A
O495       Eu508   2.474       .  S
O496        C517   1.293       .  A
O496       Eu506   2.467       .  S
O497        C518   1.280       .  A
O497       Eu507   2.408       .  S
O498        C513   1.310       .  A
O498       Eu504   2.560       .  S
O499        C516   1.308       .  A
O499       Eu505   2.550       .  S
O500        C515   1.307       .  A
O500       Eu505   2.544       .  S
O501        C514   1.309       .  A
O501       Eu504   2.553       .  S
O502        C511   1.294       .  A
O502       Eu508   2.468       .  S
O503        C512   1.287       .  A
O503       Eu508   2.432       .  S
Eu504       O522   2.388       .  S
Eu504       O510   2.370       .  S
Eu505       O509   2.364       .  S
Eu505       O520   2.385       .  S
Eu506       O520   2.336       .  S
Eu506       O510   2.350       .  S
Eu507       O509   2.340       .  S
Eu507       O522   2.363       .  S
Eu508       O509   2.326       .  S
Eu508       O520   2.372       .  S
Eu508       O522   2.340       .  S
Eu508       O510   2.348       .  S
C511        C829   1.523       .  S
C512        C913   1.482       .  S
C513        C793   1.499       .  S
C514        C808   1.519       .  S
C515        C889   1.503       .  S
C516        C901   1.518       .  S
C517        C877   1.476       .  S
C518        C865   1.463       .  S
H519        O520   0.967       .  S
H521        O522   0.966       .  S
N523        C528   1.342       .  A
N523       C1463   1.341       .  A
N523        H555   1.043       .  S
N524        C532   1.345       .  A
N525        C530   1.349       .  A
N525       C1465   1.352       .  A
N525        H556   1.043       .  S
N526        C534   1.337       .  A
C527       N1459   1.341       .  A
C527        C535   1.389       .  A
C527        C543   1.399       .  A
C528        C544   1.404       .  A
C528        C536   1.385       .  A
C529       N1461   1.352       .  A
C529        C537   1.384       .  A
C529        C546   1.409   1_655  A
C530        C545   1.416       .  A
C530        C538   1.391       .  A
C531        C543   1.405       .  A
C531        C539   1.384       .  A
C532        C546   1.399       .  A
C532        C540   1.388       .  A
C533        C541   1.388       .  A
C533        C544   1.411       .  A
C534        C542   1.386       .  A
C534        C545   1.389   1_545  A
C535       C1472   1.383       .  A
C535        H547   1.082       .  S
C536       C1471   1.383       .  A
C536        H548   1.082       .  S
C537       C1474   1.380       .  A
C537        H549   1.082       .  S
C538       C1473   1.380       .  A
C538        H550   1.081       .  S
C539        H551   1.082       .  S
C540        H552   1.081       .  S
C541        H553   1.082       .  S
C542        H554   1.083       .  S
C543        C856   1.467       .  S
C544        C841   1.463       .  S
C545        C880   1.485       .  S
C546        C868   1.481       .  S
O557        C568   1.308       .  A
O558       C1505   1.305       .  A
O558       Eu592   2.532       .  S
O559        C570   1.288       .  A
O559      Eu1501   2.440       .  S
O560        C571   1.284       .  A
O560       Eu565   2.431   1_556  S
O561        C571   1.288       .  A
O561       Eu595   2.441   1_556  S
O562        C570   1.278       .  A
O562       Eu594   2.388   1_565  S
O563        C569   1.285   1_455  A
O563      Eu1501   2.418       .  S
O564        C568   1.287       .  A
O564       Eu565   2.428   1_556  S
Eu565      O1495   2.441       .  S
Eu565      O1499   2.418       .  S
Eu565       O575   2.337   1_554  S
Eu565      O1503   2.347   1_554  S
Eu565       O566   2.360       .  S
Eu565      O1509   2.340       .  S
O566       Eu595   2.351       .  S
O566       Eu592   2.394       .  S
O567      Eu1501   2.346   1_556  S
O567      Eu1061   2.368   1_465  S
O567       Eu594   2.335   1_566  S
C568        C781   1.499       .  S
C569       O1494   1.305       .  A
C569       C1609   1.503       .  S
C570        C697   1.450       .  S
C571        C709   1.457       .  S
H572        O573   0.965       .  S
O573      Eu1501   2.338       .  S
O573       Eu594   2.354   1_565  S
O573      Eu1528   2.362   1_455  S
H574        O575   0.964       .  S
O575       Eu595   2.339   1_556  S
O576        C599   1.303       .  A
O577        C600   1.306       .  A
O577       Eu593   2.538       .  S
O578        C601   1.281       .  A
O578       Eu594   2.400       .  S
O579        C602   1.294       .  A
O579       Eu595   2.472       .  S
O580        C603   1.291       .  A
O581        C604   1.292       .  A
O582        C605   1.282       .  A
O582      Eu1532   2.412   1_455  S
O583        C606   1.291       .  A
O583       Eu596   2.451       .  S
O584        C605   1.287       .  A
O585        C606   1.278       .  A
O586        C601   1.309       .  A
O586      Eu1528   2.569   1_445  S
O587        C604   1.305       .  A
O587      Eu1529   2.539   1_455  S
O588        C603   1.306       .  A
O588       Eu593   2.539       .  S
O589        C602   1.302       .  A
O589       Eu592   2.516       .  S
O590        C599   1.290       .  A
O590       Eu596   2.448       .  S
O591        C600   1.291       .  A
O591       Eu596   2.456   1_556  S
Eu592      O1522   2.574   1_565  S
Eu592      O1509   2.363       .  S
Eu592      O1066   2.349   1_565  S
Eu593      O1523   2.536       .  S
Eu593      O1035   2.369       .  S
Eu593       O597   2.387       .  S
Eu593      O1544   2.384       .  S
Eu596      O1518   2.411       .  S
Eu596       O597   2.331   1_554  S
Eu596      O1544   2.376   1_554  S
Eu596       O610   2.349       .  S
Eu596      O1534   2.330       .  S
O598      Eu1060   2.349   1_455  S
O598      Eu1532   2.331   1_455  S
C599        C685   1.493       .  S
C600        C769   1.511       .  S
C601        C649   1.516       .  S
C602        C664   1.506       .  S
C603        C748   1.499       .  S
C604        C757   1.520       .  S
C605        C733   1.457       .  S
C606        C721   1.470   1_554  S
H607        O608   0.965       .  S
O608      Eu1529   2.384   1_455  S
O608      Eu1532   2.378   1_456  S
H609        O610   0.966       .  S
N611        C616   1.342       .  A
N611        C615   1.345       .  A
N611        H643   1.042       .  S
N612        C619   1.338       .  A
N612        C620   1.336       .  A
N613        C618   1.347       .  A
N613        C617   1.345       .  A
N613        H644   1.044       .  S
N614        C621   1.348       .  A
N614        C622   1.348       .  A
C615        C623   1.394       .  A
C615        C631   1.417   1_556  A
C616        C632   1.388       .  A
C616        C624   1.380       .  A
C617        C625   1.391       .  A
C617        C634   1.411   1_556  A
C618        C633   1.390       .  A
C618        C626   1.379       .  A
C619        C631   1.398       .  A
C619        C627   1.382       .  A
C620        C634   1.402       .  A
C620        C628   1.393       .  A
C621        C629   1.389       .  A
C621        C632   1.409       .  A
C622        C630   1.379       .  A
C622        C633   1.403       .  A
C623        C624   1.381       .  A
C623        H635   1.081       .  S
C624        H636   1.083       .  S
C625        C626   1.374       .  A
C625        H637   1.083       .  S
C626        H638   1.077       .  S
C627        C628   1.378       .  A
C627        H639   1.082       .  S
C628        H640   1.082       .  S
C629        C630   1.379       .  A
C629        H641   1.083       .  S
C630        H642   1.077       .  S
C631        C736   1.463       .  S
C632        C724   1.484       .  S
C633        C712   1.480       .  S
C634        C700   1.460       .  S
C645        C676   1.571       .  S
C645        C688   1.580       .  S
C645       C1828   1.581       .  S
C645        C904   1.577       .  S
C646        C652   1.570       .  S
C646        C661   1.584   1_545  S
C646        C916   1.581   1_545  S
C647        C772   1.574       .  S
C647        C784   1.580       .  S
C647        C796   1.585       .  S
C647       C1741   1.578       .  S
C648        C745   1.588       .  S
C648        C760   1.584       .  S
C648        C820   1.579       .  S
C649        C654   1.409       .  A
C650        C651   1.400       .  A
C650        H655   1.082       .  S
C651        O656   1.372       .  S
C652        C653   1.429       .  A
C653        C654   1.418       .  A
C653        H657   1.083       .  S
C654        O658   1.371       .  S
O656        H660   0.992       .  S
O658        H659   0.992   1_545  S
C661        C662   1.423   1_565  A
C662        C663   1.410       .  A
C662        H667   1.081       .  S
C663        C664   1.408   1_545  A
C663        O668   1.372       .  S
C665        C666   1.412       .  A
C665        H669   1.084       .  S
C666        O670   1.373       .  S
O668        H672   0.992       .  S
O670        H671   0.992       .  S
C673       C1505   1.502       .  S
C673        C674   1.412       .  A
C673       C1614   1.403       .  A
C674        C675   1.409       .  A
C674        H679   1.084       .  S
C675        C676   1.420       .  A
C675        O680   1.373       .  S
C676       C1613   1.423       .  A
C677       C1612   1.423   1_455  A
C677        C678   1.405       .  A
C677        H681   1.082       .  S
C678       C1609   1.403   1_455  A
C678        O682   1.370       .  S
O680        H684   0.992       .  S
O682        H683   0.992   1_455  S
C685        C686   1.403       .  A
C685       C1626   1.403       .  A
C686        C687   1.408       .  A
C686        H691   1.083       .  S
C687        C688   1.422       .  A
C687        O692   1.375       .  S
C688       C1625   1.427       .  A
C689       C1624   1.427       .  A
C689        C690   1.413       .  A
C689        H693   1.080       .  S
C690       C1621   1.403       .  A
C690        O694   1.371       .  S
O692        H696   0.992       .  S
O694        H695   0.992       .  S
C697        C698   1.394       .  A
C697        C702   1.413       .  A
C698        C699   1.377   1_554  A
C698        H703   1.084   1_554  S
C699        C700   1.409   1_556  A
C699        O704   1.373       .  S
C700        C701   1.394       .  A
C701        C702   1.394       .  A
C701        H705   1.084       .  S
C702        O706   1.372       .  S
O704        H708   0.989       .  S
O706        H707   0.992       .  S
C709        C710   1.405       .  A
C709        C714   1.396       .  A
C710        C711   1.398       .  A
C710        H715   1.084       .  S
C711        C712   1.403       .  A
C711        O716   1.374       .  S
C712        C713   1.409       .  A
C713        C714   1.394       .  A
C713        H717   1.070       .  S
C714        O718   1.372   1_556  S
O716        H720   0.992       .  S
O718        H719   0.992   1_554  S
C721        C722   1.394       .  A
C721        C726   1.415       .  A
C722        C723   1.386       .  A
C722        H727   1.084   1_556  S
C723        C724   1.413       .  A
C723        O728   1.366       .  S
C724        C725   1.400       .  A
C725        C726   1.397       .  A
C725        H729   1.082       .  S
C726        O730   1.372       .  S
O728        H732   0.992       .  S
O730        H731   0.992   1_556  S
C733        C734   1.399       .  A
C733        C738   1.408       .  A
C734        C735   1.391       .  A
C734        H739   1.084       .  S
C735        C736   1.409       .  A
C735        O740   1.369       .  S
C736        C737   1.395       .  A
C737        C738   1.388       .  A
C737        H741   1.084       .  S
C738        O742   1.370       .  S
O740        H744   0.992       .  S
O742        H743   0.992       .  S
C745        C750   1.422       .  A
C746        C747   1.415       .  A
C746        H751   1.079       .  S
C747        O752   1.371       .  S
C748        C749   1.402       .  A
C749        C750   1.408       .  A
C749        H753   1.080       .  S
C750        O754   1.370       .  S
O752        H756   0.992       .  S
O754        H755   0.993       .  S
C757        C758   1.414       .  A
C758        C759   1.417       .  A
C758        H763   1.083       .  S
C759        C760   1.422       .  A
C759        O764   1.373       .  S
C761        C762   1.413       .  A
C761        H765   1.082       .  S
C762        O766   1.371       .  S
O764        H768   0.992       .  S
O766        H767   0.992   1_545  S
C769        C770   1.404       .  A
C769       C1710   1.419       .  A
C770        C771   1.415       .  A
C770        H775   1.083       .  S
C771        C772   1.430       .  A
C771        O776   1.374       .  S
C772       C1709   1.409       .  A
C773       C1708   1.409       .  A
C773        C774   1.407       .  A
C773        H777   1.080       .  S
C774       C1705   1.419       .  A
C774        O778   1.372       .  S
O776        H780   0.992       .  S
O778        H779   0.992   1_455  S
C781        C782   1.405       .  A
C781       C1722   1.404       .  A
C782        C783   1.404       .  A
C782        H787   1.081       .  S
C783        C784   1.419       .  A
C783        O788   1.370       .  S
C784       C1721   1.428       .  A
C785       C1720   1.428       .  A
C785        C786   1.417       .  A
C785        H789   1.081       .  S
C786       C1717   1.405       .  A
C786        O790   1.371       .  S
O788        H792   0.991       .  S
O790        H791   0.992       .  S
C793        C794   1.395       .  A
C793        C798   1.414       .  A
C794        C795   1.414       .  A
C794        H799   1.083       .  S
C795        C796   1.438       .  A
C795        O800   1.373       .  S
C796        C797   1.415       .  A
C797        C798   1.408       .  A
C797        H801   1.083       .  S
C798        O802   1.372       .  S
O800        H804   0.992       .  S
O802        H803   0.992       .  S
C805        C806   1.409       .  A
C805        C810   1.430       .  A
C805       C1583   1.579       .  S
C806        C807   1.410       .  A
C806        H811   1.080       .  S
C807        C808   1.425       .  A
C807        O812   1.372       .  S
C808        C809   1.403       .  A
C809        C810   1.415       .  A
C809        H813   1.083       .  S
C810        O814   1.372       .  S
O812        H816   0.992       .  S
O814        H815   0.992       .  S
C817        C818   1.409       .  A
C817        C822   1.402       .  A
C818        C819   1.404       .  A
C818        H823   1.083       .  S
C819        C820   1.418       .  A
C819        O824   1.372       .  S
C820        C821   1.429       .  A
C821        C822   1.410       .  A
C821        H825   1.079       .  S
C822        O826   1.372       .  S
O824        H828   0.992       .  S
O826        H827   0.992       .  S
C829        C830   1.413       .  A
C829        C834   1.411       .  A
C830        C831   1.417       .  A
C830        H835   1.083       .  S
C831        C832   1.424       .  A
C831        O836   1.371       .  S
C832        C833   1.421       .  A
C833        C834   1.416       .  A
C833        H837   1.083       .  S
C834        O838   1.370       .  S
O836        H840   0.992   1_565  S
O838        H839   0.992       .  S
C841        C842   1.395       .  A
C841        C846   1.403       .  A
C842        C843   1.391       .  A
C842        H847   1.084       .  S
C843        C844   1.411       .  A
C843        O848   1.373       .  S
C844        C845   1.403       .  A
C845        C846   1.396       .  A
C845        H849   1.082       .  S
C846        O850   1.371       .  S
O848        H852   0.993       .  S
O850        H851   0.992       .  S
C853        C854   1.394       .  A
C853        C858   1.408       .  A
C854        C855   1.384       .  A
C854        H859   1.084       .  S
C855        C856   1.411       .  A
C855        O860   1.373       .  S
C856        C857   1.400       .  A
C857        C858   1.398       .  A
C857        H861   1.084       .  S
C858        O862   1.371       .  S
O860        H864   0.992       .  S
O862        H863   0.992       .  S
C865        C866   1.398       .  A
C865        C870   1.406       .  A
C866        C867   1.400       .  A
C866        H871   1.084       .  S
C867        C868   1.416       .  A
C867        O872   1.371       .  S
C868        C869   1.401       .  A
C869        C870   1.395       .  A
C869        H873   1.084       .  S
C870        O874   1.370       .  S
O872        H876   0.991       .  S
O874        H875   0.992       .  S
C877        C878   1.399       .  A
C877        C882   1.417       .  A
C878        C879   1.390       .  A
C878        H883   1.084       .  S
C879        C880   1.414       .  A
C879        O884   1.371       .  S
C880        C881   1.396       .  A
C881        C882   1.398       .  A
C881        H885   1.082       .  S
C882        O886   1.372       .  S
O884        H888   0.992       .  S
O886        H887   0.991       .  S
C889        C890   1.409       .  A
C889        C894   1.407       .  A
C890        C891   1.406       .  A
C890        H895   1.084       .  S
C891        C892   1.417       .  A
C891        O896   1.372       .  S
C892        C893   1.428       .  A
C892       C1581   1.580       .  S
C893        C894   1.412       .  A
C893        H897   1.080       .  S
C894        O898   1.371       .  S
O896        H900   0.991       .  S
O898        H899   0.991       .  S
C901        C902   1.402       .  A
C901        C906   1.425       .  A
C902        C903   1.411       .  A
C902        H907   1.083       .  S
C903        C904   1.428       .  A
C903        O908   1.371       .  S
C904        C905   1.410       .  A
C905        C906   1.411       .  A
C905        H909   1.082       .  S
C906        O910   1.373       .  S
O908        H912   0.992       .  S
O910        H911   0.991       .  S
C913        C914   1.390       .  A
C913        C918   1.401       .  A
C914        C915   1.409       .  A
C914        H919   1.083       .  S
C915        C916   1.443       .  A
C915        O920   1.371       .  S
C916        C917   1.415       .  A
C917        C918   1.405       .  A
C917        H921   1.082       .  S
C918        O922   1.367       .  S
O920        H924   0.993       .  S
O922        H923   0.991       .  S
C925        C926   1.400       .  A
C925        C930   1.424       .  A
C926        C927   1.413       .  A
C926        H931   1.083       .  S
C927        C928   1.430       .  A
C927        O932   1.371       .  S
C928        C929   1.410       .  A
C929        C930   1.414       .  A
C929        H933   1.081       .  S
C930        O934   1.372       .  S
O932        H936   0.992       .  S
O934        H935   0.992       .  S
O937        C948   1.309       .  A
O937       Eu973   2.557       .  S
O938        C949   1.306       .  A
O938       Eu972   2.538       .  S
O939        C950   1.284       .  A
O939       Eu945   2.418       .  S
O940        C951   1.278       .  A
O940       Eu945   2.399       .  S
O941        C951   1.290       .  A
O941       Eu975   2.458       .  S
O942        C950   1.287       .  A
O942       Eu974   2.451       .  S
O943        C949   1.283       .  A
O943       Eu945   2.410       .  S
O944        C948   1.288       .  A
O944       Eu945   2.448       .  S
Eu945       O955   2.339       .  S
Eu945       O947   2.339       .  S
Eu945       O946   2.354       .  S
Eu945       O953   2.340       .  S
O946       Eu975   2.331       .  S
O946       Eu972   2.378       .  S
O947       Eu973   2.368       .  S
O947       Eu974   2.357       .  S
C948       C1393   1.518       .  S
C949       C1285   1.496       .  S
C950       C1312   1.466       .  S
C951       C1321   1.452       .  S
H952        O953   0.965       .  S
O953       Eu974   2.354       .  S
O953       Eu972   2.382       .  S
H954        O955   0.964       .  S
O955       Eu973   2.376       .  S
O955       Eu975   2.343       .  S
O956        C979   1.306       .  A
O956       Eu972   2.538       .  S
O957        C980   1.304       .  A
O957       Eu973   2.530       .  S
O958        C981   1.284       .  A
O958       Eu974   2.416       .  S
O959        C982   1.288       .  A
O959       Eu975   2.445       .  S
O960        C983   1.288       .  A
O960       Eu975   2.434       .  S
O961        C984   1.287       .  A
O961       Eu974   2.441       .  S
O962        C985   1.281       .  A
O962       Eu976   2.408       .  S
O963        C986   1.292       .  A
O963       Eu976   2.472       .  S
O964        C985   1.294       .  A
O964       Eu974   2.469       .  S
O965        C986   1.280       .  A
O965       Eu975   2.409       .  S
O966        C981   1.310       .  A
O966       Eu972   2.559       .  S
O967        C984   1.308       .  A
O967       Eu973   2.550       .  S
O968        C983   1.306       .  A
O968       Eu973   2.543       .  S
O969        C982   1.308       .  A
O969       Eu972   2.553       .  S
O970        C979   1.294       .  A
O970       Eu976   2.469       .  S
O971        C980   1.287       .  A
O971       Eu976   2.432       .  S
Eu972       O990   2.387       .  S
Eu972       O978   2.371       .  S
Eu973       O977   2.365       .  S
Eu973       O988   2.385       .  S
Eu974       O988   2.335       .  S
Eu974       O978   2.351       .  S
Eu975       O977   2.341       .  S
Eu975       O990   2.363       .  S
Eu976       O977   2.327       .  S
Eu976       O988   2.372       .  S
Eu976       O990   2.340       .  S
Eu976       O978   2.348       .  S
C979       C1297   1.524       .  S
C980       C1381   1.482       .  S
C981       C1261   1.499       .  S
C982       C1276   1.520       .  S
C983       C1357   1.503       .  S
C984       C1369   1.518       .  S
C985       C1345   1.476       .  S
C986       C1333   1.462       .  S
H987        O988   0.967       .  S
H989        O990   0.966       .  S
N991        C996   1.342       .  A
N991       H1023   1.043       .  S
N992       C1467   1.347       .  A
N992       C1000   1.344       .  A
N993        C998   1.350       .  A
N993       H1024   1.043       .  S
N994       C1469   1.338       .  A
N994       C1002   1.336       .  A
C995       C1003   1.389       .  A
C995       C1011   1.399   1_545  A
C996       C1012   1.404   1_455  A
C996       C1004   1.385       .  A
C997       C1005   1.384       .  A
C997       C1014   1.409       .  A
C998       C1013   1.416       .  A
C998       C1006   1.391       .  A
C999       N1460   1.348       .  A
C999       C1011   1.406       .  A
C999       C1007   1.384       .  A
C1000      C1014   1.399       .  A
C1000      C1008   1.388       .  A
C1001      N1462   1.339       .  A
C1001      C1009   1.389       .  A
C1001      C1012   1.411       .  A
C1002      C1010   1.386       .  A
C1002      C1013   1.388       .  A
C1003      H1015   1.082       .  S
C1004      H1016   1.082       .  S
C1005      H1017   1.082       .  S
C1006      H1018   1.081       .  S
C1007      C1476   1.374       .  A
C1007      H1019   1.082       .  S
C1008      C1475   1.375       .  A
C1008      H1020   1.081       .  S
C1009      C1478   1.380       .  A
C1009      H1021   1.082       .  S
C1010      C1477   1.380       .  A
C1010      H1022   1.083       .  S
C1011      C1324   1.468   1_565  S
C1012      C1309   1.463       .  S
C1013      C1348   1.485       .  S
C1014      C1336   1.482       .  S
O1025      C1036   1.308       .  A
O1025     Eu1529   2.555   1_455  S
O1026     Eu1060   2.529       .  S
O1027      C1038   1.288       .  A
O1028      C1039   1.284       .  A
O1028     Eu1033   2.430   1_656  S
O1029      C1039   1.288       .  A
O1029     Eu1063   2.442   1_556  S
O1030      C1038   1.279       .  A
O1030     Eu1062   2.394       .  S
O1031      C1037   1.286       .  A
O1032      C1036   1.287       .  A
O1032     Eu1033   2.426   1_556  S
Eu1033     O1043   2.337   1_454  S
Eu1033     O1034   2.360   1_455  S
O1034     Eu1063   2.352       .  S
O1034     Eu1060   2.394       .  S
O1035     Eu1062   2.335   1_556  S
C1036      C1249   1.499       .  S
C1038      C1165   1.450       .  S
C1039      C1177   1.457       .  S
H1040      O1041   0.965       .  S
O1041     Eu1062   2.354       .  S
H1042      O1043   0.964       .  S
O1043     Eu1529   2.351       .  S
O1043     Eu1063   2.339   1_556  S
O1044      C1067   1.303       .  A
O1044     Eu1528   2.527   1_545  S
O1045      C1068   1.305   1_455  A
O1045     Eu1061   2.534   1_455  S
O1046      C1069   1.281       .  A
O1046     Eu1062   2.398       .  S
O1047      C1070   1.294       .  A
O1047     Eu1063   2.470       .  S
O1048      C1071   1.291   1_565  A
O1048     Eu1531   2.454   1_556  S
O1049      C1072   1.292       .  A
O1049     Eu1530   2.463   1_556  S
O1050      C1073   1.282       .  A
O1051      C1074   1.291       .  A
O1051     Eu1064   2.449       .  S
O1052      C1073   1.287       .  A
O1052     Eu1530   2.431       .  S
O1053      C1074   1.279       .  A
O1053     Eu1531   2.398   1_545  S
O1054      C1069   1.310       .  A
O1055      C1072   1.305       .  A
O1056      C1071   1.306       .  A
O1056     Eu1061   2.538       .  S
O1057      C1070   1.302       .  A
O1057     Eu1060   2.516       .  S
O1058      C1067   1.290       .  A
O1058     Eu1064   2.450       .  S
O1059      C1068   1.291       .  A
O1059     Eu1064   2.457   1_556  S
Eu1060     O1512   2.525       .  S
Eu1060     O1546   2.392       .  S
Eu1061     O1493   2.552   1_645  S
Eu1061     O1511   2.351   1_545  S
Eu1061     O1065   2.388       .  S
Eu1062     O1517   2.463   1_554  S
Eu1062     O1520   2.431       .  S
Eu1062     O1544   2.336   1_554  S
Eu1062     O1534   2.318       .  S
Eu1063     O1516   2.453   1_554  S
Eu1063     O1521   2.399       .  S
Eu1063     O1533   2.361   1_554  S
Eu1063     O1546   2.355       .  S
Eu1064     O1065   2.331   1_554  S
Eu1064     O1078   2.349       .  S
O1065     Eu1531   2.361   1_546  S
O1066     Eu1530   2.318       .  S
C1067      C1153   1.494       .  S
C1068      C1237   1.511   1_655  S
C1069      C1117   1.517       .  S
C1070      C1132   1.505       .  S
C1071      C1216   1.499       .  S
C1072      C1225   1.520       .  S
C1073      C1201   1.458       .  S
C1074      C1189   1.470   1_554  S
H1075      O1076   0.965       .  S
O1076     Eu1530   2.336   1_556  S
H1077      O1078   0.966       .  S
O1078     Eu1528   2.390   1_545  S
O1078     Eu1531   2.354   1_545  S
N1079      C1084   1.343       .  A
N1079      C1083   1.344       .  A
N1079      H1111   1.042       .  S
N1080      C1087   1.338       .  A
N1080      C1088   1.337       .  A
N1081      C1086   1.347       .  A
N1081      C1085   1.345       .  A
N1081      H1112   1.044       .  S
N1082      C1089   1.348       .  A
N1082      C1090   1.347       .  A
C1083      C1091   1.394       .  A
C1083      C1099   1.416   1_556  A
C1084      C1100   1.387       .  A
C1084      C1092   1.379       .  A
C1085      C1093   1.391       .  A
C1085      C1102   1.412   1_556  A
C1086      C1101   1.391       .  A
C1086      C1094   1.379       .  A
C1087      C1099   1.398       .  A
C1087      C1095   1.382       .  A
C1088      C1102   1.402       .  A
C1088      C1096   1.393       .  A
C1089      C1097   1.388       .  A
C1089      C1100   1.408       .  A
C1090      C1098   1.379       .  A
C1090      C1101   1.403       .  A
C1091      C1092   1.381       .  A
C1091      H1103   1.081       .  S
C1092      H1104   1.083       .  S
C1093      C1094   1.374       .  A
C1093      H1105   1.083       .  S
C1094      H1106   1.077       .  S
C1095      C1096   1.378       .  A
C1095      H1107   1.082       .  S
C1096      H1108   1.082       .  S
C1097      C1098   1.379       .  A
C1097      H1109   1.083       .  S
C1098      H1110   1.076       .  S
C1099      C1204   1.462       .  S
C1100      C1192   1.485       .  S
C1101      C1180   1.479       .  S
C1102      C1168   1.462       .  S
C1113      C1144   1.570   1_455  S
C1113      C1156   1.581   1_455  S
C1113      C1372   1.578   1_455  S
C1114      C1120   1.570       .  S
C1114      C1129   1.584       .  S
C1114      C1384   1.581       .  S
C1114      C1864   1.582       .  S
C1115      C1240   1.574       .  S
C1115      C1252   1.580       .  S
C1115      C1264   1.585   1_455  S
C1116      C1213   1.587       .  S
C1116      C1228   1.583       .  S
C1116      C1288   1.580       .  S
C1116      C1768   1.587   1_545  S
C1117      C1586   1.418       .  A
C1117      C1122   1.409       .  A
C1118      C1585   1.418       .  A
C1118      C1119   1.400       .  A
C1118      H1123   1.082       .  S
C1119      C1588   1.411       .  A
C1119      O1124   1.372       .  S
C1120      C1587   1.411       .  A
C1120      C1121   1.429       .  A
C1121      C1122   1.419       .  A
C1121      H1125   1.083       .  S
C1122      O1126   1.371       .  S
O1124      H1128   0.992       .  S
O1126      H1127   0.992       .  S
C1129      C1130   1.424       .  A
C1129      C1602   1.425       .  A
C1130      C1131   1.409       .  A
C1130      H1135   1.080       .  S
C1131      C1132   1.408       .  A
C1131      O1136   1.372       .  S
C1132      C1601   1.407       .  A
C1133      C1600   1.406       .  A
C1133      C1134   1.412       .  A
C1133      H1137   1.084       .  S
C1134      C1597   1.425       .  A
C1134      O1138   1.373       .  S
O1136      H1140   0.992       .  S
O1138      H1139   0.992       .  S
C1141      C1142   1.412       .  A
C1142      C1143   1.408       .  A
C1142      H1147   1.083       .  S
C1143      C1144   1.419       .  A
C1143      O1148   1.373       .  S
C1145      C1146   1.405       .  A
C1145      H1149   1.082       .  S
C1146      O1150   1.370       .  S
O1148      H1152   0.992       .  S
O1150      H1151   0.991       .  S
C1153      C1154   1.403   1_655  A
C1154      C1155   1.409       .  A
C1154      H1159   1.083       .  S
C1155      C1156   1.422   1_455  A
C1155      O1160   1.375       .  S
C1157      C1158   1.413       .  A
C1157      H1161   1.080       .  S
C1158      O1162   1.371       .  S
O1160      H1164   0.992       .  S
O1162      H1163   0.992       .  S
C1165      C1166   1.394   1_554  A
C1165      C1170   1.413       .  A
C1166      C1167   1.378       .  A
C1166      H1171   1.084       .  S
C1167      C1168   1.410   1_556  A
C1167      O1172   1.373       .  S
C1168      C1169   1.395       .  A
C1169      C1170   1.395       .  A
C1169      H1173   1.084       .  S
C1170      O1174   1.372       .  S
O1172      H1176   0.989       .  S
O1174      H1175   0.992       .  S
C1177      C1178   1.405       .  A
C1177      C1182   1.396       .  A
C1178      C1179   1.398       .  A
C1178      H1183   1.084       .  S
C1179      C1180   1.403       .  A
C1179      O1184   1.374       .  S
C1180      C1181   1.409       .  A
C1181      C1182   1.394       .  A
C1181      H1185   1.070       .  S
C1182      O1186   1.372   1_556  S
O1184      H1188   0.992       .  S
O1186      H1187   0.992   1_554  S
C1189      C1190   1.394       .  A
C1189      C1194   1.415       .  A
C1190      C1191   1.387       .  A
C1190      H1195   1.084   1_556  S
C1191      C1192   1.413       .  A
C1191      O1196   1.366       .  S
C1192      C1193   1.401       .  A
C1193      C1194   1.397       .  A
C1193      H1197   1.082       .  S
C1194      O1198   1.372       .  S
O1196      H1200   0.993       .  S
O1198      H1199   0.992   1_556  S
C1201      C1202   1.399       .  A
C1201      C1206   1.409       .  A
C1202      C1203   1.391       .  A
C1202      H1207   1.084       .  S
C1203      C1204   1.408       .  A
C1203      O1208   1.370       .  S
C1204      C1205   1.394       .  A
C1205      C1206   1.388       .  A
C1205      H1209   1.084       .  S
C1206      O1210   1.370       .  S
O1208      H1212   0.992       .  S
O1210      H1211   0.992       .  S
C1213      C1682   1.428   1_545  A
C1213      C1218   1.422       .  A
C1214      C1681   1.427       .  A
C1214      C1215   1.415       .  A
C1214      H1219   1.079       .  S
C1215      C1684   1.404       .  A
C1215      O1220   1.371       .  S
C1216      C1683   1.404   1_545  A
C1216      C1217   1.402       .  A
C1217      C1218   1.408       .  A
C1217      H1221   1.081       .  S
C1218      O1222   1.370       .  S
O1220      H1224   0.992       .  S
O1222      H1223   0.993       .  S
C1225      C1226   1.414   1_545  A
C1225      C1698   1.410       .  A
C1226      C1227   1.417       .  A
C1226      H1231   1.083       .  S
C1227      C1228   1.421   1_565  A
C1227      O1232   1.373       .  S
C1228      C1697   1.422       .  A
C1229      C1696   1.422       .  A
C1229      C1230   1.414       .  A
C1229      H1233   1.083       .  S
C1230      C1693   1.410       .  A
C1230      O1234   1.371       .  S
O1232      H1236   0.992       .  S
O1234      H1235   0.992       .  S
C1237      C1238   1.404   1_455  A
C1238      C1239   1.415       .  A
C1238      H1243   1.083       .  S
C1239      C1240   1.430   1_655  A
C1239      O1244   1.374       .  S
C1241      C1242   1.407       .  A
C1241      H1245   1.080       .  S
C1242      O1246   1.372       .  S
O1244      H1248   0.992       .  S
O1246      H1247   0.992       .  S
C1249      C1250   1.406   1_455  A
C1250      C1251   1.404       .  A
C1250      H1255   1.081       .  S
C1251      C1252   1.419   1_655  A
C1251      O1256   1.370       .  S
C1253      C1254   1.417       .  A
C1253      H1257   1.081       .  S
C1254      O1258   1.371       .  S
O1256      H1260   0.991       .  S
O1258      H1259   0.992       .  S
C1261      C1262   1.395       .  A
C1261      C1266   1.414       .  A
C1262      C1263   1.414       .  A
C1262      H1267   1.083       .  S
C1263      C1264   1.438       .  A
C1263      O1268   1.373       .  S
C1264      C1265   1.415       .  A
C1265      C1266   1.407       .  A
C1265      H1269   1.083       .  S
C1266      O1270   1.372       .  S
O1268      H1272   0.992       .  S
O1270      H1271   0.992       .  S
C1273      C1274   1.408       .  A
C1273      C1278   1.430       .  A
C1274      C1275   1.409       .  A
C1274      H1279   1.080       .  S
C1275      C1276   1.425       .  A
C1275      O1280   1.372       .  S
C1276      C1277   1.404       .  A
C1277      C1278   1.415       .  A
C1277      H1281   1.083       .  S
C1278      O1282   1.372       .  S
O1280      H1284   0.992       .  S
O1282      H1283   0.992       .  S
C1285      C1286   1.409       .  A
C1285      C1290   1.402       .  A
C1286      C1287   1.404       .  A
C1286      H1291   1.083       .  S
C1287      C1288   1.418       .  A
C1287      O1292   1.372       .  S
C1288      C1289   1.429       .  A
C1289      C1290   1.410       .  A
C1289      H1293   1.079       .  S
C1290      O1294   1.372       .  S
O1292      H1296   0.992       .  S
O1294      H1295   0.992       .  S
C1297      C1298   1.413       .  A
C1297      C1302   1.411       .  A
C1298      C1299   1.417       .  A
C1298      H1303   1.083       .  S
C1299      C1300   1.424       .  A
C1299      O1304   1.371       .  S
C1300      C1301   1.421       .  A
C1300      C1584   1.588       .  S
C1301      C1302   1.416       .  A
C1301      H1305   1.083       .  S
C1302      O1306   1.370       .  S
O1304      H1308   0.992       .  S
O1306      H1307   0.992       .  S
C1309      C1310   1.395       .  A
C1309      C1314   1.404       .  A
C1310      C1311   1.391       .  A
C1310      H1315   1.084       .  S
C1311      C1312   1.411       .  A
C1311      O1316   1.373       .  S
C1312      C1313   1.403       .  A
C1313      C1314   1.396       .  A
C1313      H1317   1.082       .  S
C1314      O1318   1.371       .  S
O1316      H1320   0.992       .  S
O1318      H1319   0.992   1_655  S
C1321      C1322   1.394       .  A
C1321      C1326   1.408       .  A
C1322      C1323   1.385       .  A
C1322      H1327   1.084       .  S
C1323      C1324   1.411       .  A
C1323      O1328   1.373       .  S
C1324      C1325   1.401       .  A
C1325      C1326   1.398       .  A
C1325      H1329   1.084       .  S
C1326      O1330   1.371       .  S
O1328      H1332   0.992       .  S
O1330      H1331   0.992       .  S
C1333      C1334   1.397       .  A
C1333      C1338   1.406       .  A
C1334      C1335   1.400       .  A
C1334      H1339   1.084       .  S
C1335      C1336   1.416       .  A
C1335      O1340   1.371       .  S
C1336      C1337   1.401       .  A
C1337      C1338   1.395       .  A
C1337      H1341   1.084       .  S
C1338      O1342   1.370       .  S
O1340      H1344   0.991       .  S
O1342      H1343   0.992       .  S
C1345      C1346   1.399       .  A
C1345      C1350   1.418       .  A
C1346      C1347   1.390       .  A
C1346      H1351   1.084       .  S
C1347      C1348   1.414       .  A
C1347      O1352   1.371       .  S
C1348      C1349   1.397       .  A
C1349      C1350   1.399       .  A
C1349      H1353   1.082       .  S
C1350      O1354   1.372       .  S
O1352      H1356   0.992       .  S
O1354      H1355   0.992       .  S
C1357      C1358   1.409       .  A
C1357      C1362   1.406       .  A
C1358      C1359   1.406       .  A
C1358      H1363   1.084       .  S
C1359      C1360   1.417       .  A
C1359      O1364   1.371       .  S
C1360      C1361   1.428       .  A
C1361      C1362   1.412       .  A
C1361      H1365   1.080       .  S
C1362      O1366   1.371       .  S
O1364      H1368   0.991       .  S
O1366      H1367   0.992       .  S
C1369      C1370   1.403       .  A
C1369      C1374   1.425       .  A
C1370      C1371   1.412       .  A
C1370      H1375   1.083       .  S
C1371      C1372   1.428       .  A
C1371      O1376   1.371       .  S
C1372      C1373   1.410       .  A
C1373      C1374   1.411       .  A
C1373      H1377   1.081       .  S
C1374      O1378   1.373       .  S
O1376      H1380   0.992       .  S
O1378      H1379   0.991       .  S
C1381      C1382   1.390       .  A
C1381      C1386   1.401       .  A
C1382      C1383   1.409       .  A
C1382      H1387   1.083       .  S
C1383      C1384   1.443       .  A
C1383      O1388   1.372       .  S
C1384      C1385   1.415       .  A
C1385      C1386   1.405       .  A
C1385      H1389   1.082       .  S
C1386      O1390   1.367       .  S
O1388      H1392   0.993       .  S
O1390      H1391   0.991       .  S
C1393      C1394   1.400       .  A
C1393      C1398   1.424       .  A
C1394      C1395   1.413       .  A
C1394      H1399   1.083       .  S
C1395      C1396   1.430       .  A
C1395      O1400   1.371       .  S
C1396      C1397   1.410       .  A
C1396      C1582   1.581       .  S
C1397      C1398   1.415       .  A
C1397      H1401   1.081       .  S
C1398      O1402   1.372       .  S
O1400      H1404   0.992       .  S
O1402      H1403   0.992       .  S
O1405      C1416   1.309       .  A
O1405     Eu1441   2.557       .  S
O1406      C1417   1.306       .  A
O1406     Eu1440   2.540       .  S
O1407      C1418   1.284       .  A
O1407     Eu1413   2.416       .  S
O1408      C1419   1.278       .  A
O1408     Eu1413   2.398       .  S
O1409      C1419   1.290       .  A
O1409     Eu1443   2.461       .  S
O1410      C1418   1.287       .  A
O1410     Eu1442   2.450       .  S
O1411      C1417   1.283       .  A
O1411     Eu1413   2.407       .  S
O1412      C1416   1.288       .  A
O1412     Eu1413   2.448       .  S
Eu1413     O1423   2.337       .  S
Eu1413     O1415   2.339       .  S
Eu1413     O1414   2.353       .  S
Eu1413     O1421   2.340       .  S
O1414     Eu1443   2.331       .  S
O1414     Eu1440   2.379       .  S
O1415     Eu1441   2.369       .  S
O1415     Eu1442   2.359       .  S
C1416      C1861   1.518       .  S
C1417      C1753   1.496       .  S
C1418      C1780   1.466       .  S
C1419      C1789   1.452       .  S
H1420      O1421   0.965       .  S
O1421     Eu1442   2.355       .  S
O1421     Eu1440   2.381       .  S
H1422      O1423   0.964       .  S
O1423     Eu1441   2.374       .  S
O1423     Eu1443   2.342       .  S
O1424      C1447   1.306       .  A
O1424     Eu1440   2.538       .  S
O1425      C1448   1.303       .  A
O1425     Eu1441   2.527       .  S
O1426      C1449   1.284       .  A
O1426     Eu1442   2.414       .  S
O1427      C1450   1.289       .  A
O1427     Eu1443   2.447       .  S
O1428      C1451   1.288       .  A
O1428     Eu1443   2.436       .  S
O1429      C1452   1.288       .  A
O1429     Eu1442   2.442       .  S
O1430      C1453   1.281       .  A
O1430     Eu1444   2.411       .  S
O1431      C1454   1.293       .  A
O1431     Eu1444   2.472       .  S
O1432      C1453   1.294       .  A
O1432     Eu1442   2.470       .  S
O1433      C1454   1.280       .  A
O1433     Eu1443   2.408       .  S
O1434      C1449   1.310       .  A
O1434     Eu1440   2.559       .  S
O1435      C1452   1.308       .  A
O1435     Eu1441   2.549       .  S
O1436      C1451   1.307       .  A
O1436     Eu1441   2.544       .  S
O1437      C1450   1.308       .  A
O1437     Eu1440   2.549       .  S
O1438      C1447   1.294       .  A
O1438     Eu1444   2.470       .  S
O1439      C1448   1.287       .  A
O1439     Eu1444   2.431       .  S
Eu1440     O1458   2.388       .  S
Eu1440     O1446   2.371       .  S
Eu1441     O1445   2.364       .  S
Eu1441     O1456   2.387       .  S
Eu1442     O1456   2.335       .  S
Eu1442     O1446   2.351       .  S
Eu1443     O1445   2.340       .  S
Eu1443     O1458   2.365       .  S
Eu1444     O1445   2.327       .  S
Eu1444     O1456   2.372       .  S
Eu1444     O1458   2.341       .  S
Eu1444     O1446   2.347       .  S
C1447      C1765   1.524       .  S
C1448      C1849   1.480       .  S
C1449      C1729   1.500       .  S
C1450      C1744   1.518       .  S
C1451      C1825   1.504       .  S
C1452      C1837   1.518       .  S
C1453      C1813   1.477       .  S
C1454      C1801   1.463       .  S
H1455      O1456   0.967       .  S
H1457      O1458   0.966       .  S
N1459      C1464   1.342       .  A
N1459      H1491   1.042       .  S
N1460      C1468   1.345       .  A
N1461      C1466   1.349       .  A
N1461      H1492   1.043       .  S
N1462      C1470   1.336       .  A
C1463      C1471   1.389       .  A
C1463      C1479   1.398       .  A
C1464      C1480   1.405   1_455  A
C1464      C1472   1.385       .  A
C1465      C1473   1.384       .  A
C1465      C1482   1.408       .  A
C1466      C1481   1.415       .  A
C1466      C1474   1.391       .  A
C1467      C1479   1.405       .  A
C1467      C1475   1.384       .  A
C1468      C1482   1.399       .  A
C1468      C1476   1.388       .  A
C1469      C1477   1.388       .  A
C1469      C1480   1.412       .  A
C1470      C1478   1.385       .  A
C1470      C1481   1.388   1_545  A
C1471      H1483   1.082       .  S
C1472      H1484   1.082       .  S
C1473      H1485   1.082       .  S
C1474      H1486   1.081       .  S
C1475      H1487   1.082       .  S
C1476      H1488   1.081       .  S
C1477      H1489   1.082       .  S
C1478      H1490   1.083       .  S
C1479      C1792   1.467       .  S
C1480      C1777   1.463       .  S
C1481      C1816   1.485       .  S
C1482      C1804   1.481       .  S
O1493      C1504   1.307       .  A
O1494     Eu1528   2.534       .  S
O1495      C1506   1.288       .  A
O1496      C1507   1.284       .  A
O1496     Eu1501   2.429   1_656  S
O1497      C1507   1.288       .  A
O1497     Eu1531   2.442   1_556  S
O1498      C1506   1.278       .  A
O1498     Eu1530   2.392   1_565  S
O1499      C1505   1.285       .  A
O1500      C1504   1.287       .  A
O1500     Eu1501   2.428   1_556  S
Eu1501     O1511   2.337   1_454  S
Eu1501     O1502   2.359   1_455  S
O1502     Eu1531   2.351       .  S
O1502     Eu1528   2.393       .  S
O1503     Eu1530   2.333   1_566  S
C1504      C1717   1.499       .  S
C1506      C1633   1.450       .  S
C1507      C1645   1.456       .  S
H1508      O1509   0.965       .  S
O1509     Eu1530   2.354   1_565  S
H1510      O1511   0.964       .  S
O1511     Eu1531   2.339   1_556  S
O1512      C1535   1.303       .  A
O1513      C1536   1.306       .  A
O1513     Eu1529   2.538       .  S
O1514      C1537   1.281       .  A
O1514     Eu1530   2.397       .  S
O1515      C1538   1.294       .  A
O1515     Eu1531   2.471       .  S
O1516      C1539   1.290       .  A
O1517      C1540   1.292       .  A
O1518      C1541   1.282       .  A
O1519      C1542   1.292       .  A
O1519     Eu1532   2.456       .  S
O1520      C1541   1.287       .  A
O1521      C1542   1.279       .  A
O1522      C1537   1.310       .  A
O1523      C1540   1.305       .  A
O1524      C1539   1.306       .  A
O1524     Eu1529   2.539       .  S
O1525      C1538   1.301       .  A
O1525     Eu1528   2.512       .  S
O1526      C1535   1.290       .  A
O1526     Eu1532   2.452       .  S
O1527      C1536   1.291       .  A
O1527     Eu1532   2.458   1_556  S
Eu1529     O1533   2.388       .  S
Eu1532     O1533   2.332   1_554  S
Eu1532     O1546   2.349       .  S
C1535      C1621   1.494       .  S
C1536      C1705   1.512   1_655  S
C1537      C1585   1.517       .  S
C1538      C1600   1.504       .  S
C1539      C1684   1.498       .  S
C1540      C1693   1.519       .  S
C1541      C1669   1.457       .  S
C1542      C1657   1.472   1_554  S
H1543      O1544   0.964       .  S
H1545      O1546   0.966       .  S
N1547      C1552   1.342       .  A
N1547      C1551   1.345       .  A
N1547      H1579   1.042       .  S
N1548      C1555   1.337       .  A
N1548      C1556   1.336       .  A
N1549      C1554   1.347       .  A
N1549      C1553   1.346       .  A
N1549      H1580   1.044       .  S
N1550      C1557   1.348       .  A
N1550      C1558   1.348       .  A
C1551      C1559   1.394       .  A
C1551      C1567   1.417   1_556  A
C1552      C1568   1.388       .  A
C1552      C1560   1.379       .  A
C1553      C1561   1.390       .  A
C1553      C1570   1.412   1_556  A
C1554      C1569   1.391       .  A
C1554      C1562   1.379       .  A
C1555      C1567   1.397       .  A
C1555      C1563   1.382       .  A
C1556      C1570   1.402       .  A
C1556      C1564   1.393       .  A
C1557      C1565   1.388       .  A
C1557      C1568   1.409       .  A
C1558      C1566   1.379       .  A
C1558      C1569   1.403       .  A
C1559      C1560   1.381       .  A
C1559      H1571   1.081       .  S
C1560      H1572   1.083       .  S
C1561      C1562   1.374       .  A
C1561      H1573   1.083       .  S
C1562      H1574   1.077       .  S
C1563      C1564   1.378       .  A
C1563      H1575   1.083       .  S
C1564      H1576   1.082       .  S
C1565      C1566   1.379       .  A
C1565      H1577   1.083       .  S
C1566      H1578   1.076       .  S
C1567      C1672   1.462       .  S
C1568      C1660   1.485       .  S
C1569      C1648   1.479       .  S
C1570      C1636   1.461       .  S
C1581      C1612   1.572   1_455  S
C1581      C1624   1.581   1_455  S
C1581      C1840   1.577   1_455  S
C1582      C1588   1.571       .  S
C1582      C1597   1.584   1_545  S
C1582      C1852   1.579   1_545  S
C1583      C1708   1.575       .  S
C1583      C1720   1.580       .  S
C1583      C1732   1.585   1_455  S
C1584      C1681   1.587       .  S
C1584      C1696   1.582       .  S
C1584      C1756   1.579       .  S
C1585      C1590   1.408       .  A
C1586      C1587   1.400       .  A
C1586      H1591   1.082       .  S
C1587      O1592   1.372       .  S
C1588      C1589   1.429       .  A
C1589      C1590   1.418       .  A
C1589      H1593   1.083       .  S
C1590      O1594   1.371       .  S
O1592      H1596   0.992       .  S
O1594      H1595   0.992   1_545  S
C1597      C1598   1.423   1_565  A
C1598      C1599   1.409       .  A
C1598      H1603   1.081       .  S
C1599      C1600   1.408   1_545  A
C1599      O1604   1.372       .  S
C1601      C1602   1.413       .  A
C1601      H1605   1.084       .  S
C1602      O1606   1.373       .  S
O1604      H1608   0.992       .  S
O1606      H1607   0.992       .  S
C1609      C1610   1.413       .  A
C1610      C1611   1.409       .  A
C1610      H1615   1.083       .  S
C1611      C1612   1.420       .  A
C1611      O1616   1.373       .  S
C1613      C1614   1.404       .  A
C1613      H1617   1.082       .  S
C1614      O1618   1.370       .  S
O1616      H1620   0.992       .  S
O1618      H1619   0.991       .  S
C1621      C1622   1.403   1_655  A
C1622      C1623   1.409       .  A
C1622      H1627   1.083       .  S
C1623      C1624   1.422   1_455  A
C1623      O1628   1.375       .  S
C1625      C1626   1.413       .  A
C1625      H1629   1.080       .  S
C1626      O1630   1.371       .  S
O1628      H1632   0.992       .  S
O1630      H1631   0.992       .  S
C1633      C1634   1.394   1_554  A
C1633      C1638   1.413       .  A
C1634      C1635   1.379       .  A
C1634      H1639   1.084       .  S
C1635      C1636   1.410   1_556  A
C1635      O1640   1.373       .  S
C1636      C1637   1.394       .  A
C1637      C1638   1.394       .  A
C1637      H1641   1.084       .  S
C1638      O1642   1.372       .  S
O1640      H1644   0.989       .  S
O1642      H1643   0.992       .  S
C1645      C1646   1.405       .  A
C1645      C1650   1.395       .  A
C1646      C1647   1.398       .  A
C1646      H1651   1.084       .  S
C1647      C1648   1.403       .  A
C1647      O1652   1.374       .  S
C1648      C1649   1.409       .  A
C1649      C1650   1.394       .  A
C1649      H1653   1.070       .  S
C1650      O1654   1.372   1_556  S
O1652      H1656   0.992       .  S
O1654      H1655   0.992   1_554  S
C1657      C1658   1.394       .  A
C1657      C1662   1.416       .  A
C1658      C1659   1.387       .  A
C1658      H1663   1.084   1_556  S
C1659      C1660   1.414       .  A
C1659      O1664   1.366       .  S
C1660      C1661   1.400       .  A
C1661      C1662   1.398       .  A
C1661      H1665   1.082       .  S
C1662      O1666   1.372       .  S
O1664      H1668   0.993       .  S
O1666      H1667   0.992   1_556  S
C1669      C1670   1.399       .  A
C1669      C1674   1.408       .  A
C1670      C1671   1.391       .  A
C1670      H1675   1.084       .  S
C1671      C1672   1.408       .  A
C1671      O1676   1.370       .  S
C1672      C1673   1.394       .  A
C1673      C1674   1.388       .  A
C1673      H1677   1.084       .  S
C1674      O1678   1.370       .  S
O1676      H1680   0.991       .  S
O1678      H1679   0.992       .  S
C1681      C1686   1.423       .  A
C1682      C1683   1.415       .  A
C1682      H1687   1.079       .  S
C1683      O1688   1.371       .  S
C1684      C1685   1.402       .  A
C1685      C1686   1.408       .  A
C1685      H1689   1.081       .  S
C1686      O1690   1.370       .  S
O1688      H1692   0.992       .  S
O1690      H1691   0.993       .  S
C1693      C1694   1.414       .  A
C1694      C1695   1.417       .  A
C1694      H1699   1.083       .  S
C1695      C1696   1.421       .  A
C1695      O1700   1.373       .  S
C1697      C1698   1.414       .  A
C1697      H1701   1.083       .  S
C1698      O1702   1.371       .  S
O1700      H1704   0.992       .  S
O1702      H1703   0.992   1_545  S
C1705      C1706   1.404   1_455  A
C1706      C1707   1.415       .  A
C1706      H1711   1.083       .  S
C1707      C1708   1.429   1_655  A
C1707      O1712   1.374       .  S
C1709      C1710   1.407       .  A
C1709      H1713   1.080       .  S
C1710      O1714   1.372       .  S
O1712      H1716   0.992       .  S
O1714      H1715   0.992       .  S
C1717      C1718   1.405   1_455  A
C1718      C1719   1.403       .  A
C1718      H1723   1.081       .  S
C1719      C1720   1.419   1_655  A
C1719      O1724   1.370       .  S
C1721      C1722   1.417       .  A
C1721      H1725   1.081       .  S
C1722      O1726   1.371       .  S
O1724      H1728   0.991       .  S
O1726      H1727   0.992       .  S
C1729      C1730   1.395       .  A
C1729      C1734   1.414       .  A
C1730      C1731   1.414       .  A
C1730      H1735   1.083       .  S
C1731      C1732   1.438       .  A
C1731      O1736   1.373       .  S
C1732      C1733   1.415       .  A
C1733      C1734   1.408       .  A
C1733      H1737   1.083       .  S
C1734      O1738   1.372       .  S
O1736      H1740   0.992       .  S
O1738      H1739   0.992       .  S
C1741      C1742   1.408       .  A
C1741      C1746   1.430       .  A
C1742      C1743   1.408       .  A
C1742      H1747   1.080       .  S
C1743      C1744   1.425       .  A
C1743      O1748   1.372       .  S
C1744      C1745   1.404       .  A
C1745      C1746   1.415       .  A
C1745      H1749   1.083       .  S
C1746      O1750   1.372       .  S
O1748      H1752   0.992       .  S
O1750      H1751   0.992       .  S
C1753      C1754   1.409       .  A
C1753      C1758   1.402       .  A
C1754      C1755   1.403       .  A
C1754      H1759   1.082       .  S
C1755      C1756   1.417       .  A
C1755      O1760   1.372       .  S
C1756      C1757   1.429       .  A
C1757      C1758   1.409       .  A
C1757      H1761   1.079       .  S
C1758      O1762   1.372       .  S
O1760      H1764   0.992       .  S
O1762      H1763   0.992       .  S
C1765      C1766   1.413       .  A
C1765      C1770   1.412       .  A
C1766      C1767   1.416       .  A
C1766      H1771   1.083       .  S
C1767      C1768   1.423       .  A
C1767      O1772   1.371       .  S
C1768      C1769   1.421       .  A
C1769      C1770   1.416       .  A
C1769      H1773   1.083       .  S
C1770      O1774   1.370       .  S
O1772      H1776   0.992   1_565  S
O1774      H1775   0.992       .  S
C1777      C1778   1.395       .  A
C1777      C1782   1.405       .  A
C1778      C1779   1.391       .  A
C1778      H1783   1.084       .  S
C1779      C1780   1.411       .  A
C1779      O1784   1.373       .  S
C1780      C1781   1.403       .  A
C1781      C1782   1.396       .  A
C1781      H1785   1.082       .  S
C1782      O1786   1.371       .  S
O1784      H1788   0.993       .  S
O1786      H1787   0.992   1_655  S
C1789      C1790   1.394       .  A
C1789      C1794   1.408       .  A
C1790      C1791   1.385       .  A
C1790      H1795   1.084       .  S
C1791      C1792   1.412       .  A
C1791      O1796   1.373       .  S
C1792      C1793   1.401       .  A
C1793      C1794   1.398       .  A
C1793      H1797   1.084       .  S
C1794      O1798   1.371       .  S
O1796      H1800   0.992       .  S
O1798      H1799   0.991       .  S
C1801      C1802   1.397       .  A
C1801      C1806   1.406       .  A
C1802      C1803   1.400       .  A
C1802      H1807   1.084       .  S
C1803      C1804   1.416       .  A
C1803      O1808   1.371       .  S
C1804      C1805   1.401       .  A
C1805      C1806   1.395       .  A
C1805      H1809   1.084       .  S
C1806      O1810   1.370       .  S
O1808      H1812   0.992       .  S
O1810      H1811   0.992       .  S
C1813      C1814   1.400       .  A
C1813      C1818   1.418       .  A
C1814      C1815   1.391       .  A
C1814      H1819   1.084       .  S
C1815      C1816   1.414       .  A
C1815      O1820   1.371       .  S
C1816      C1817   1.396       .  A
C1817      C1818   1.398       .  A
C1817      H1821   1.082       .  S
C1818      O1822   1.372       .  S
O1820      H1824   0.992       .  S
O1822      H1823   0.991       .  S
C1825      C1826   1.409       .  A
C1825      C1830   1.406       .  A
C1826      C1827   1.406       .  A
C1826      H1831   1.084       .  S
C1827      C1828   1.417       .  A
C1827      O1832   1.371       .  S
C1828      C1829   1.428       .  A
C1829      C1830   1.413       .  A
C1829      H1833   1.080       .  S
C1830      O1834   1.371       .  S
O1832      H1836   0.991       .  S
O1834      H1835   0.992       .  S
C1837      C1838   1.403       .  A
C1837      C1842   1.424       .  A
C1838      C1839   1.412       .  A
C1838      H1843   1.083       .  S
C1839      C1840   1.428       .  A
C1839      O1844   1.371       .  S
C1840      C1841   1.410       .  A
C1841      C1842   1.410       .  A
C1841      H1845   1.081       .  S
C1842      O1846   1.372       .  S
O1844      H1848   0.992       .  S
O1846      H1847   0.991       .  S
C1849      C1850   1.390       .  A
C1849      C1854   1.401       .  A
C1850      C1851   1.408       .  A
C1850      H1855   1.083       .  S
C1851      C1852   1.442       .  A
C1851      O1856   1.372       .  S
C1852      C1853   1.415       .  A
C1853      C1854   1.404       .  A
C1853      H1857   1.082       .  S
C1854      O1858   1.368       .  S
O1856      H1860   0.993       .  S
O1858      H1859   0.991       .  S
C1861      C1862   1.400       .  A
C1861      C1866   1.425       .  A
C1862      C1863   1.413       .  A
C1862      H1867   1.083       .  S
C1863      C1864   1.431       .  A
C1863      O1868   1.371       .  S
C1864      C1865   1.410       .  A
C1865      C1866   1.415       .  A
C1865      H1869   1.081       .  S
C1866      O1870   1.372       .  S
O1868      H1872   0.992       .  S
O1870      H1871   0.992       .  S
