geometry optimzed in LAMMPS
_audit_creation_date              2020-11-30 
_audit_creation_method            'lammps2cif' 
_symmetry_space_group_name_H-M    'P1' 
_symmetry_Int_Tables_number       1 
_symmetry_cell_setting            triclinic 
loop_ 
_symmetry_equiv_pos_as_xyz 
  x,y,z 
_cell_length_a                    36.65547248774009 
_cell_length_b                    36.652355521461665 
_cell_length_c                    36.643205073556686 
_cell_angle_alpha                 90.01131858745354 
_cell_angle_beta                  89.847068862766 
_cell_angle_gamma                 90.01251863924433 
loop_ 
_atom_site_label 
_atom_site_type_symbol 
_atom_site_fract_x 
_atom_site_fract_y 
_atom_site_fract_z 
_atom_site_charge 
C1          C  0.10871044  0.86616735  0.53222535     0.03290
C2          C  0.08788851  0.85839985  0.50051622     0.03290
C3          C  0.10356938  0.86590180  0.46643889     0.03290
C4          C  0.13119134  0.89253543  0.46433640     0.03290
C5          C  0.14169852  0.91166304  0.49634377     0.03290
C6          C  0.13860889  0.89172654  0.52993518     0.03290
C7          C  0.14537298  0.09574213  0.46489317     0.03290
C8          C  0.14839717  0.07241312  0.49560005     0.03290
C9          C  0.14354623  0.09062626  0.52940183     0.03290
C10         C  0.11195037  0.11391108  0.53107235     0.03290
C11         C  0.09304600  0.12143765  0.49803922     0.03290
C12         C  0.11267491  0.11726271  0.46473999     0.03290
C13         C  0.91440661  0.10944632  0.46543214     0.03290
C14         C  0.93390651  0.11676178  0.49782693     0.03290
C15         C  0.91679116  0.10879288  0.53164368     0.03290
C16         C  0.88743397  0.08346868  0.53235613     0.03290
C17         C  0.87697131  0.06612871  0.49969353     0.03290
C18         C  0.88603900  0.08305726  0.46623400     0.03290
C19         C  0.91279015  0.86436674  0.46658528     0.03290
C20         C  0.92943777  0.85582842  0.50029555     0.03290
C21         C  0.90977242  0.86356755  0.53252669     0.03290
C22         C  0.88250805  0.89099891  0.53188299     0.03290
C23         C  0.87424487  0.90829543  0.49852633     0.03290
C24         C  0.88433705  0.89060321  0.46594922     0.03290
C25         C  0.48027986  0.12232222  0.10436632     0.03290
C26         C  0.51324445  0.12958481  0.08432835     0.03290
C27         C  0.54577241  0.11655625  0.09996594     0.03290
C28         C  0.54511465  0.08541437  0.12290244     0.03290
C29         C  0.51148400  0.06778750  0.12940243     0.03290
C30         C  0.47911467  0.08834267  0.12446222     0.03290
C31         C  0.47650092  0.11066121  0.90719669     0.03290
C32         C  0.50989123  0.11932491  0.92448294     0.03290
C33         C  0.54264233  0.11064699  0.90587454     0.03290
C34         C  0.54212312  0.08295328  0.87856450     0.03290
C35         C  0.50875453  0.06528832  0.87017196     0.03290
C36         C  0.47587664  0.08328828  0.87966840     0.03290
C37         C  0.47535286  0.89001717  0.12587684     0.03290
C38         C  0.50798090  0.90864178  0.13445527     0.03290
C39         C  0.54135891  0.89176076  0.12473660     0.03290
C40         C  0.54134771  0.86486471  0.09677040     0.03290
C41         C  0.50834490  0.85637529  0.07898846     0.03290
C42         C  0.47535981  0.86417474  0.09712390     0.03290
C43         C  0.47987857  0.88767427  0.87461553     0.03290
C44         C  0.51227632  0.90652756  0.86619090     0.03290
C45         C  0.54568217  0.88995390  0.87537676     0.03290
C46         C  0.54629865  0.86272988  0.90284115     0.03290
C47         C  0.51330393  0.85307240  0.92057594     0.03290
C48         C  0.48019349  0.86072562  0.90236190     0.03290
C49         C  0.13222448  0.52228720  0.90345444     0.03290
C50         C  0.10532921  0.52239375  0.87562695     0.03290
C51         C  0.08772682  0.48946830  0.86624237     0.03290
C52         C  0.10563125  0.45619559  0.87449621     0.03290
C53         C  0.13308538  0.45614293  0.90196703     0.03290
C54         C  0.14086516  0.48893964  0.92081580     0.03290
C55         C  0.13587512  0.52158406  0.09722655     0.03290
C56         C  0.14448666  0.48839569  0.07977776     0.03290
C57         C  0.13590009  0.45573854  0.09834354     0.03290
C58         C  0.10771900  0.45586081  0.12497619     0.03290
C59         C  0.09052122  0.48917678  0.13381875     0.03290
C60         C  0.10911751  0.52177579  0.12523627     0.03290
C61         C  0.91320919  0.52247685  0.12309758     0.03290
C62         C  0.93185229  0.48978591  0.13113709     0.03290
C63         C  0.91473636  0.45653006  0.12189691     0.03290
C64         C  0.88689813  0.45660911  0.09502355     0.03290
C65         C  0.87717453  0.48946160  0.07759460     0.03290
C66         C  0.88603702  0.52257794  0.09546688     0.03290
C67         C  0.91169415  0.45385439  0.86957422     0.03290
C68         C  0.92754762  0.48711833  0.85824068     0.03290
C69         C  0.90651719  0.51952034  0.86553150     0.03290
C70         C  0.88493475  0.51941248  0.89866249     0.03290
C71         C  0.87924360  0.48648761  0.91796324     0.03290
C72         C  0.88638144  0.45338624  0.89926481     0.03290
C73         C  0.12167762  0.90599281  0.77468742     0.43460
N74         N  0.17735662  0.92358189  0.77779567     0.02350
C75         C  0.25150868  0.08069187  0.84825330    -0.05520
H76         H  0.16936024  0.10136289  0.74057975     0.07840
C77         C  0.25647124  0.02518444  0.66188757    -0.05880
Co78       Co  0.18768496  0.99068196  0.82259010     0.74180
N79         N  0.18209048  0.05292247  0.77085380    -0.25050
Co80       Co  0.23893171  0.05205218  0.77076909     0.74070
C81         C  0.23393955  0.05760126  0.65611088     0.43560
N82         N  0.25505494  0.94097394  0.70220032     0.01970
N83         N  0.24054353  0.04830112  0.71377406     0.02070
N84         N  0.21591644  0.04365711  0.88255760    -0.45900
H85         H  0.10195778  0.95444586  0.80986483     0.07830
N86         N  0.16219186  0.03073867  0.79121382     0.02360
N87         N  0.29594380  0.04956822  0.77180454     0.02100
C88         C  0.35234209  0.05820831  0.78512935     0.43700
N89         N  0.23505028  0.91775463  0.72104171    -0.24510
C90         C  0.21463326  0.94166234  0.88810131    -0.05430
N91         N  0.15607017  0.89768283  0.76497897    -0.45620
N92         N  0.31822022  0.07112454  0.79043045    -0.45840
C93         C  0.23551425  0.90759575  0.89047891     0.43480
N94         N  0.21745854  0.03259738  0.84793744     0.02350
N95         N  0.29050961  0.91918494  0.77928874    -0.24530
N96         N  0.15918691  0.94893291  0.79588290    -0.25020
N97         N  0.31015792  0.94218240  0.75982511     0.01990
H98         H  0.30489108  0.87927209  0.82021168     0.07880
H99         H  0.37007385  0.00693272  0.75383602     0.07910
N100        N  0.23727601  0.05465048  0.82739392    -0.25070
N101        N  0.25871319  0.02155977  0.69807382    -0.24690
N102        N  0.23262715  0.92434453  0.83454471     0.02350
C103        C  0.12409929  0.06997090  0.77060101     0.43750
C104        C  0.21674685  0.89631221  0.69748442    -0.05940
N105        N  0.31330331  0.02252643  0.75561036    -0.24680
H106        H  0.26914584  0.00693809  0.64257633     0.07900
N107        N  0.12733005  0.04056763  0.79260450    -0.45910
H108        H  0.19712186  0.87551433  0.70479807     0.07880
C109        C  0.34928786  0.91291604  0.79153126     0.43580
C110        C  0.12346161  0.94003371  0.79562788    -0.05430
Co111      Co  0.23382016  0.92051262  0.77808183     0.73820
N112        N  0.25101616  0.93707504  0.66657099    -0.45620
C113        C  0.23742970  0.07369933  0.88469713     0.43850
N114        N  0.24527109  0.89875397  0.85627906    -0.45610
Co115      Co  0.28493521  0.98171441  0.72830526     0.73890
C116        C  0.34905439  0.02578214  0.76237334    -0.05940
C117        C  0.16028064  0.07794990  0.75611793    -0.05500
N118        N  0.21455087  0.95002079  0.85223751    -0.25030
N119        N  0.22500242  0.07036173  0.68968515    -0.45790
H120        H  0.26701179  0.10370680  0.83821992     0.07860
C121        C  0.31296698  0.89942478  0.80025203    -0.05920
Cl122      Cl  0.23626386  0.98627316  0.77492143    -0.48920
C123        C  0.22740863  0.90928135  0.66119602     0.43610
H124        H  0.20010260  0.95624848  0.90927846     0.07820
N125        N  0.34552013  0.93952831  0.76649541    -0.45630
C126        C  0.09620379  0.09836154  0.77409029     0.43460
N127        N  0.07826505  0.15373355  0.77900198     0.02350
C128        C  0.92004842  0.22574385  0.84938404    -0.05520
H129        H  0.89988600  0.14265424  0.74336534     0.07840
C130        C  0.97627116  0.22226878  0.66220089    -0.05880
Co131      Co  0.01107656  0.16307867  0.82390649     0.74180
N132        N  0.94844523  0.15554356  0.77311742    -0.25050
Co133      Co  0.94876042  0.21202986  0.77196865     0.74070
C134        C  0.94556599  0.19747759  0.65852168     0.43560
N135        N  0.05817484  0.22819440  0.70167200     0.01970
N136        N  0.95211677  0.21142598  0.71498390     0.02070
N137        N  0.95811711  0.19168576  0.88389345    -0.45900
H138        H  0.04810770  0.07737323  0.80924375     0.07830
N139        N  0.97075258  0.13606767  0.79357633     0.02360
N140        N  0.95084485  0.26877520  0.77202975     0.02100
C141        C  0.94299785  0.32491246  0.78553986     0.43700
N142        N  0.08143973  0.20892581  0.72107129    -0.24510
C143        C  0.06016931  0.19273164  0.88817065    -0.05430
N144        N  0.10418540  0.13296507  0.76532217    -0.45620
N145        N  0.93054306  0.29093909  0.79213536    -0.45840
C146        C  0.09337540  0.21499556  0.88990325     0.43480
N147        N  0.96895251  0.19279510  0.84919370     0.02350
N148        N  0.08064711  0.26712559  0.77685004    -0.24530
N149        N  0.05319082  0.13503974  0.79696054    -0.25020
N150        N  0.05665824  0.28546273  0.75744355     0.01990
H151        H  0.12206528  0.28414760  0.81518335     0.07880
H152        H  0.99156621  0.34311483  0.75045938     0.07910
N153        N  0.94638122  0.21177529  0.82855082    -0.25070
N154        N  0.97839015  0.22923270  0.69803928    -0.24690
N155        N  0.07636625  0.21053278  0.83421916     0.02350
C156        C  0.93109339  0.09784131  0.77370317     0.43750
C157        C  0.10086297  0.18773597  0.69836045    -0.05940
N158        N  0.97662048  0.28621363  0.75395652    -0.24680
H159        H  0.99483653  0.23197332  0.64140941     0.07900
N160        N  0.96063016  0.10125216  0.79562244    -0.45910
H161        H  0.12105634  0.16773035  0.70612997     0.07880
C162        C  0.08660587  0.32681771  0.78601659     0.43580
C163        C  0.06239931  0.09939584  0.79567399    -0.05430
Co164      Co  0.07997099  0.21016877  0.77780461     0.73820
N165        N  0.06028049  0.22114047  0.66635632    -0.45620
C166        C  0.92764133  0.21258013  0.88590950     0.43850
N167        N  0.10156693  0.22459819  0.85549064    -0.45610
Co168      Co  0.01746628  0.25803104  0.72707120     0.73890
C169        C  0.97330913  0.32202229  0.76015807    -0.05940
C170        C  0.92333500  0.13368085  0.75879358    -0.05500
N171        N  0.05153631  0.19171135  0.85242817    -0.25030
N172        N  0.93210841  0.19153498  0.69234704    -0.45790
H173        H  0.89637813  0.24025590  0.83946898     0.07860
C174        C  0.10108605  0.29101097  0.79564669    -0.05920
Cl175      Cl  0.01430953  0.21068645  0.77542434    -0.48920
C176        C  0.08663083  0.19595218  0.66226120     0.43610
H177        H  0.04620115  0.17814552  0.90974783     0.07820
N178        N  0.05876178  0.32113306  0.76272948    -0.45630
C179        C  0.09191792  0.87920171  0.22540562     0.43460
N180        N  0.07492695  0.82346649  0.22115243     0.02350
C181        C  0.92023662  0.74854025  0.14784774    -0.05520
H182        H  0.89632825  0.83159437  0.25445609     0.07840
C183        C  0.97218481  0.75178577  0.33614477    -0.05880
Co184      Co  0.00917024  0.81282441  0.17514112     0.74180
N185        N  0.94544841  0.81907933  0.22505978    -0.25050
Co186      Co  0.94674478  0.76243230  0.22599646     0.74070
C187        C  0.94059382  0.77557588  0.33964000     0.43560
N188        N  0.05566701  0.74790386  0.29782982     0.01970
N189        N  0.94898362  0.76266167  0.28307919     0.02070
N190        N  0.95836266  0.78374552  0.11437882    -0.45900
H191        H  0.04441180  0.89888176  0.18910469     0.07830
N192        N  0.96800519  0.83892407  0.20509351     0.02360
N193        N  0.94974962  0.70560687  0.22576290     0.02100
C194        C  0.94259293  0.64929726  0.21183346     0.43700
N195        N  0.07910990  0.76729426  0.27862152    -0.24510
C196        C  0.05966256  0.78459980  0.11106078    -0.05430
N197        N  0.10018659  0.84483106  0.23496183    -0.45620
N198        N  0.92991006  0.68323979  0.20548399    -0.45840
C199        C  0.09339934  0.76312061  0.10957984     0.43480
N200        N  0.96833607  0.78249977  0.14923920     0.02350
N201        N  0.07932955  0.71025585  0.22198648    -0.24530
N202        N  0.05001933  0.84157893  0.20256295    -0.25020
N203        N  0.05596940  0.69111522  0.24155969     0.01990
H204        H  0.12048421  0.69479114  0.18258274     0.07880
H205        H  0.99126835  0.63167662  0.24692254     0.07910
N206        N  0.94568518  0.76291364  0.16933461    -0.25070
N207        N  0.97530962  0.74529525  0.30028596    -0.24690
N208        N  0.07553556  0.76718822  0.16518083     0.02350
C209        C  0.92801709  0.87685286  0.22492582     0.43750
C210        C  0.09962331  0.78693756  0.30166567    -0.05940
N211        N  0.97560059  0.68845173  0.24389034    -0.24680
H212        H  0.99066549  0.74242112  0.35708470     0.07900
N213        N  0.95793550  0.87375381  0.20339796    -0.45910
H214        H  0.12031847  0.80656187  0.29402365     0.07880
C215        C  0.08659686  0.65099703  0.21195654     0.43580
C216        C  0.05862470  0.87735429  0.20340083    -0.05430
Co217      Co  0.07794480  0.76704597  0.22174249     0.73820
N218        N  0.05860284  0.75366940  0.33337299    -0.45620
C219        C  0.92842654  0.76227159  0.11156805     0.43850
N220        N  0.10136296  0.75376267  0.14408554    -0.45610
Co221      Co  0.01560892  0.71743950  0.27168183     0.73890
C222        C  0.97281889  0.65256879  0.23729559    -0.05940
C223        C  0.91995531  0.84074640  0.23922817    -0.05500
N224        N  0.05055144  0.78538973  0.14676652    -0.25030
N225        N  0.92796952  0.78175901  0.30559534    -0.45790
H226        H  0.89657083  0.73349256  0.15718887     0.07860
C227        C  0.09986187  0.68720478  0.20233551    -0.05920
Cl228      Cl  0.01236109  0.76498335  0.22360640    -0.48920
C229        C  0.08628909  0.77745300  0.33794658     0.43610
H230        H  0.04558182  0.79875714  0.08937826     0.07820
N231        N  0.05903876  0.65554010  0.23597470    -0.45630
C232        C  0.34934667  0.77449311  0.07049050     0.43460
N233        N  0.29300562  0.76172689  0.06151215     0.02350
C234        C  0.21343099  0.68675847  0.90956477    -0.05520
H235        H  0.30604669  0.80481226  0.88925609     0.07840
C236        C  0.21415139  0.87714426  0.95243834    -0.05880
Co237      Co  0.28182604  0.71661417  0.99483508     0.74180
N238        N  0.28981829  0.76646148  0.93110593    -0.25050
Co239      Co  0.23290898  0.76680160  0.93223819     0.74070
C240        C  0.23559193  0.87944302  0.91874517     0.43560
N241        N  0.21566189  0.83830440  0.04315903     0.01970
N242        N  0.23253525  0.82350333  0.93567577     0.02070
N243        N  0.24504706  0.65500867  0.95167163    -0.45900
H244        H  0.36750931  0.74118401  0.02058040     0.07830
N245        N  0.30856203  0.74712093  0.95487227     0.02360
N246        N  0.17633034  0.76740648  0.93463245     0.02100
C247        C  0.12085123  0.76425173  0.91653280     0.43700
N248        N  0.23547182  0.81794676  0.06521296    -0.24510
C249        C  0.24820219  0.65166441  0.03866384    -0.05430
N250        N  0.31518229  0.78088910  0.08263563    -0.45620
N251        N  0.15529810  0.75451364  0.90857805    -0.45840
C252        C  0.22446538  0.64830414  0.07045382     0.43480
N253        N  0.25141531  0.69050167  0.95442274     0.02350
N254        N  0.17955194  0.76197423  0.06445295    -0.24530
N255        N  0.31046962  0.74424692  0.03533204    -0.25020
N256        N  0.15970758  0.78190199  0.04199570     0.01990
H257        H  0.16686612  0.73160208  0.11286605     0.07880
H258        H  0.10068577  0.79966144  0.96464820     0.07910
N259        N  0.23275167  0.70977494  0.93051720    -0.25070
N260        N  0.21389609  0.84135492  0.96089873    -0.24690
N261        N  0.23626285  0.70479673  0.06116818     0.02350
C262        C  0.34936152  0.77572162  0.92395290     0.43750
C263        C  0.25021957  0.83895101  0.09074976    -0.05940
N264        N  0.15791133  0.78558139  0.95976402    -0.24680
H265        H  0.19931937  0.89831426  0.96670007     0.07900
N266        N  0.34419459  0.75252598  0.95208043    -0.45910
H267        H  0.26571527  0.82900154  0.11370639     0.07880
C268        C  0.12160593  0.76087133  0.08125838     0.43580
C269        C  0.34632203  0.75057034  0.03888499    -0.05430
Co270      Co  0.23616194  0.76150599  0.06368801     0.73820
N271        N  0.21449866  0.87304400  0.05383551    -0.45620
C272        C  0.22197283  0.65041789  0.92337716     0.43850
N273        N  0.21753470  0.68236857  0.08249131    -0.45610
Co274      Co  0.18602950  0.81254239  0.00152158     0.73890
C275        C  0.12229885  0.78532505  0.95051946    -0.05940
C276        C  0.31330889  0.78540579  0.91025803    -0.05500
N277        N  0.25396896  0.68760246  0.03498578    -0.25030
N278        N  0.24563567  0.84519586  0.91016751    -0.45790
H279        H  0.19423139  0.69451229  0.88863150     0.07860
C280        C  0.15779897  0.74706042  0.08945158    -0.05920
Cl281      Cl  0.23420230  0.76439183  0.99805336    -0.48920
C282        C  0.23635520  0.87534636  0.08357195     0.43610
H283        H  0.25804076  0.63061010  0.02047751     0.07820
N284        N  0.12473349  0.78289545  0.05173611    -0.45630
C285        C  0.07426069  0.19929337  0.33666902     0.43460
N286        N  0.06850965  0.21406250  0.28055878     0.02350
C287        C  0.91951269  0.28937365  0.19826431    -0.05520
H288        H  0.90021588  0.16799662  0.29148890     0.07840
C289        C  0.96042889  0.09888152  0.20259368    -0.05880
Co290      Co  0.00246034  0.25976863  0.26886627     0.74180
N291        N  0.93940770  0.20937286  0.27617296    -0.25050
Co292      Co  0.94092508  0.20948827  0.21926349     0.74070
C293        C  0.92673320  0.09744533  0.22427687     0.43560
N294        N  0.05155005  0.13752184  0.20395351     0.01970
N295        N  0.94388135  0.15306806  0.21919521     0.02070
N296        N  0.95983584  0.32128286  0.23201048    -0.45900
H297        H  0.02590570  0.23498373  0.35405758     0.07830
N298        N  0.96241631  0.22917310  0.29535619     0.02360
N299        N  0.94424528  0.20885198  0.16289790     0.02100
C300        C  0.92799332  0.21396053  0.10707001     0.43700
N301        N  0.07397210  0.15794707  0.22333568    -0.24510
C302        C  0.04551191  0.32441193  0.23491603    -0.05430
N303        N  0.08779307  0.19331186  0.30294968    -0.45620
N304        N  0.91929301  0.22304939  0.14148153    -0.45840
C305        C  0.07725055  0.32809730  0.21134239     0.43480
N306        N  0.96243578  0.28579562  0.23835003     0.02350
N307        N  0.07343588  0.21366456  0.16719635    -0.24530
N308        N  0.04248773  0.23221232  0.29757592    -0.25020
N309        N  0.05118763  0.19339409  0.14742700     0.01990
H310        H  0.12189672  0.24395236  0.15442947     0.07880
H311        H  0.97580224  0.17790990  0.08731425     0.07910
N312        N  0.93937866  0.26645341  0.21875772    -0.25070
N313        N  0.96912350  0.13464583  0.20121684    -0.24690
N314        N  0.06916247  0.27151837  0.22382234     0.02350
C315        C  0.93407196  0.19693648  0.33535613     0.43750
C316        C  0.09981427  0.13687717  0.23768153    -0.05940
N317        N  0.96935539  0.19038383  0.14479708    -0.24680
H318        H  0.97483148  0.07709151  0.18884638     0.07900
N319        N  0.96031834  0.22235866  0.33083083    -0.45910
H320        H  0.12330172  0.14656688  0.25264693     0.07880
C321        C  0.09060689  0.21397880  0.10927996     0.43580
C322        C  0.04462244  0.22536100  0.33335291    -0.05430
Co323      Co  0.07201953  0.21451823  0.22385316     0.73820
N324        N  0.06202097  0.10275705  0.20292403    -0.45620
C325        C  0.93292351  0.32567806  0.20739875     0.43850
N326        N  0.09027415  0.29420680  0.20508639    -0.45610
Co327      Co  0.01034524  0.16312989  0.17360723     0.73890
C328        C  0.96119062  0.19172490  0.10893311    -0.05940
C329        C  0.92010087  0.18832961  0.29915168    -0.05500
N330        N  0.04257429  0.28853292  0.24113171    -0.25030
N331        N  0.91833235  0.13197096  0.23303482    -0.45790
H332        H  0.89935234  0.28165573  0.17825759     0.07860
C333        C  0.09855705  0.22831697  0.14539743    -0.05920
Cl334      Cl  0.00645212  0.21168513  0.22132448    -0.48920
C335        C  0.09206482  0.10043662  0.22431135     0.43610
H336        H  0.02693486  0.34525499  0.24445904     0.07820
N337        N  0.06112135  0.19196612  0.11251608    -0.45630
C338        C  0.22154672  0.91728532  0.33871721     0.43460
N339        N  0.23446338  0.92640592  0.28252975     0.02350
C340        C  0.31237317  0.07043052  0.19566874    -0.05520
H341        H  0.20135361  0.10436330  0.29119185     0.07840
C342        C  0.12150517  0.03788688  0.20200170    -0.05880
Co343      Co  0.28077131  0.99177044  0.27046458     0.74180
N344        N  0.23376444  0.05761236  0.27656273    -0.25050
Co345      Co  0.23242957  0.05455177  0.21956381     0.74070
C346        C  0.12032715  0.07207178  0.22277299     0.43560
N347        N  0.15825799  0.94594824  0.20567953     0.01970
N348        N  0.17567909  0.05322780  0.21981406     0.02070
N349        N  0.34304757  0.02978311  0.23031776    -0.45900
H350        H  0.25474391  0.96735484  0.35693751     0.07830
N351        N  0.25225973  0.03371772  0.29595220     0.02360
N352        N  0.23122483  0.05101088  0.16301864     0.02100
C353        C  0.23436340  0.06786134  0.10708540     0.43700
N354        N  0.17799490  0.92346715  0.22565402    -0.24510
C355        C  0.34479052  0.94560428  0.23925730    -0.05430
N356        N  0.21537180  0.90518439  0.30463618    -0.45620
N357        N  0.24434092  0.07642002  0.14126310    -0.45840
C358        C  0.34794562  0.91422479  0.21515965     0.43480
N359        N  0.30782743  0.03000658  0.23839737     0.02350
N360        N  0.23395171  0.92173196  0.16955310    -0.24530
N361        N  0.25187591  0.95262929  0.29991113    -0.25020
N362        N  0.21423102  0.94376803  0.14906870     0.01990
H363        H  0.26479054  0.87348117  0.15868895     0.07880
H364        H  0.19782292  0.02013023  0.08840739     0.07910
N365        N  0.28921527  0.05329935  0.21829203    -0.25070
N366        N  0.15701950  0.02820197  0.20176623    -0.24690
N367        N  0.29136260  0.92467148  0.22595564     0.02350
C368        C  0.22967987  0.07027173  0.33606145     0.43750
C369        C  0.15609278  0.89903780  0.24114962    -0.05940
N370        N  0.21250797  0.02589742  0.14532559    -0.24680
H371        H  0.09979702  0.02395446  0.18773875     0.07900
N372        N  0.25037366  0.04009868  0.33147860    -0.45910
H373        H  0.16500714  0.87572600  0.25684903     0.07880
C374        C  0.23577752  0.90358594  0.11214030     0.43580
C375        C  0.24532817  0.94913273  0.33579142    -0.05430
Co376      Co  0.23453133  0.92346476  0.22593557     0.73820
N377        N  0.12318880  0.93667423  0.20510094    -0.45620
C378        C  0.34783553  0.05449497  0.20352542     0.43850
N379        N  0.31371326  0.90306081  0.20743648    -0.45610
Co380      Co  0.18470768  0.98584204  0.17469345     0.73890
C381        C  0.21274547  0.03430414  0.10949886    -0.05940
C382        C  0.21837891  0.08179498  0.29944123    -0.05500
N383        N  0.30884323  0.95025201  0.24406535    -0.25030
N384        N  0.15487289  0.07970310  0.23249482    -0.45790
H385        H  0.30512015  0.08993683  0.17487299     0.07860
C386        C  0.24911743  0.89630511  0.14865762    -0.05920
Cl387      Cl  0.23296939  0.98893392  0.22273007    -0.48920
C388        C  0.11992930  0.90751496  0.22755405     0.43610
H389        H  0.36601093  0.96327102  0.24949999     0.07820
N390        N  0.21367996  0.93323384  0.11425470    -0.45630
C391        C  0.23453362  0.09612808  0.07898413     0.43460
N392        N  0.23112662  0.15209296  0.06242584     0.02350
C393        C  0.15786760  0.23042105  0.90977586    -0.05520
H394        H  0.26610596  0.14901908  0.88377721     0.07840
C395        C  0.34608874  0.22611387  0.96229507    -0.05880
Co396      Co  0.18552614  0.16332659  0.99637404     0.74180
N397        N  0.23574742  0.15910184  0.93269586    -0.25050
Co398      Co  0.23622336  0.21553260  0.93542181     0.74070
C399        C  0.34971837  0.20124361  0.93152780     0.43560
N400        N  0.30675788  0.22923663  0.04530532     0.01970
N401        N  0.29325631  0.21521551  0.93845663     0.02070
N402        N  0.12464586  0.19394303  0.94691970    -0.45900
H403        H  0.19903882  0.07720549  0.03063273     0.07830
N404        N  0.21592259  0.13827042  0.95443425     0.02360
N405        N  0.23558735  0.27233457  0.93919661     0.02100
C406        C  0.22124923  0.32868021  0.93268410     0.43700
N407        N  0.28751595  0.20953417  0.06841452    -0.24510
C408        C  0.12076531  0.19016795  0.04725266    -0.05430
N409        N  0.24414998  0.13038519  0.08786414    -0.45620
N410        N  0.21532968  0.29483548  0.91947931    -0.45840
C411        C  0.11904198  0.21142067  0.08121038     0.43480
N412        N  0.15964304  0.19444956  0.95632394     0.02350
N413        N  0.23038313  0.26554370  0.06831637    -0.24530
N414        N  0.21301324  0.13425719  0.03691133    -0.25020
N415        N  0.25020132  0.28513926  0.04552348     0.01990
H416        H  0.19017467  0.28031415  0.10894864     0.07880
H417        H  0.25600268  0.34585008  0.98179123     0.07910
N418        N  0.17959482  0.21480657  0.93424162    -0.25070
N419        N  0.31020823  0.23279086  0.96482870    -0.24690
N420        N  0.17464238  0.20778602  0.06348092     0.02350
C421        C  0.23698955  0.10202882  0.91327840     0.43750
C422        C  0.31035467  0.19181219  0.09073500    -0.05940
N423        N  0.25343112  0.28926863  0.96536673    -0.24680
H424        H  0.36667358  0.23519012  0.98125595     0.07900
N425        N  0.21503975  0.10370219  0.94314153    -0.45910
H426        H  0.30215131  0.17312697  0.11202988     0.07880
C427        C  0.21965307  0.32465292  0.07585058     0.43580
C428        C  0.21348058  0.09842084  0.04514048    -0.05430
Co429      Co  0.23092804  0.20867215  0.06632287     0.73820
N430        N  0.34228704  0.22581547  0.05036945    -0.45620
C431        C  0.12158993  0.21668597  0.91799966     0.43850
N432        N  0.15341594  0.22088594  0.08934029    -0.45610
Co433      Co  0.28097007  0.25983997  0.00519969     0.73890
C434        C  0.24663341  0.32516329  0.96300181    -0.05940
C435        C  0.25058939  0.13862846  0.90664757    -0.05500
N436        N  0.15652327  0.18967516  0.03822316    -0.25030
N437        N  0.31584132  0.19517098  0.91845791    -0.45790
H438        H  0.16692749  0.24656811  0.88675797     0.07860
C439        C  0.21012690  0.28823410  0.08869350    -0.05920
Cl440      Cl  0.23341557  0.21174389  0.00083063    -0.48920
C441        C  0.34681265  0.20276259  0.07875151     0.43610
H442        H  0.09919051  0.17617113  0.03287532     0.07820
N443        N  0.24437679  0.32061332  0.04889990    -0.45630
C444        C  0.79574698  0.05554966  0.34046068     0.43460
N445        N  0.78362202  0.04839360  0.28367481     0.02350
C446        C  0.70750636  0.89874360  0.20080692    -0.05520
H447        H  0.82887661  0.87841633  0.29064646     0.07840
C448        C  0.89835104  0.93906219  0.20124101    -0.05880
Co449      Co  0.73843706  0.98229516  0.27046380     0.74180
N450        N  0.78826423  0.91863367  0.27612775    -0.25050
Co451      Co  0.78770687  0.92080792  0.21927692     0.74070
C452        C  0.89960797  0.90486112  0.22206324     0.43560
N453        N  0.86055371  0.03035627  0.20585408     0.01970
N454        N  0.84416131  0.92298458  0.21839411     0.02070
N455        N  0.67644045  0.94028299  0.23412016    -0.45900
H456        H  0.76226536  0.00517005  0.35660915     0.07830
N457        N  0.76874102  0.94159481  0.29580253     0.02360
N458        N  0.78780690  0.92519624  0.16274588     0.02100
C459        C  0.78442764  0.90908244  0.10663789     0.43700
N460        N  0.84079691  0.05254442  0.22632480    -0.24510
C461        C  0.67398094  0.02609675  0.23685544    -0.05430
N462        N  0.80226519  0.06902796  0.30677743    -0.45620
N463        N  0.77444916  0.90014077  0.14080801    -0.45840
C464        C  0.67092591  0.05713409  0.21233414     0.43480
N465        N  0.71202267  0.94296496  0.23950386     0.02350
N466        N  0.78511982  0.05476665  0.17033157    -0.24530
N467        N  0.76607369  0.02168494  0.30015236    -0.25020
N468        N  0.80481039  0.03288197  0.14953170     0.01990
H469        H  0.75559683  0.10405299  0.16021483     0.07880
H470        H  0.82089147  0.95700566  0.08817192     0.07910
N471        N  0.73087611  0.91945057  0.21989621    -0.25070
N472        N  0.86268584  0.94832412  0.20067990    -0.24690
N473        N  0.72715545  0.04938078  0.22615153     0.02350
C474        C  0.79993174  0.91174762  0.33513415     0.43750
C475        C  0.86272684  0.07713085  0.24153103    -0.05940
N476        N  0.80648406  0.95054561  0.14514541    -0.24680
H477        H  0.92018722  0.95347802  0.18750408     0.07900
N478        N  0.77516216  0.93861602  0.33122134    -0.45910
H479        H  0.85379779  0.10036797  0.25741477     0.07880
C480        C  0.78479633  0.07440998  0.11330649     0.43580
C481        C  0.77202301  0.02402786  0.33612121    -0.05430
Co482      Co  0.78405800  0.05196947  0.22680617     0.73820
N483        N  0.89552504  0.03989527  0.20476185    -0.45620
C484        C  0.67145795  0.91251635  0.21054716     0.43850
N485        N  0.70495349  0.06985393  0.20632221    -0.45610
Co486      Co  0.83441095  0.99061036  0.17449261     0.73890
C487        C  0.80607294  0.94256858  0.10924684    -0.05940
C488        C  0.80886205  0.89854411  0.29869268    -0.05500
N489        N  0.70980103  0.02307429  0.24352348    -0.25030
N490        N  0.86507219  0.89681950  0.23124694    -0.45790
H491        H  0.71484749  0.87799588  0.18114648     0.07860
C492        C  0.77087361  0.08104225  0.14983811    -0.05920
Cl493      Cl  0.78629461  0.98643473  0.22260604    -0.48920
C494        C  0.89887081  0.06899436  0.22722126     0.43610
H495        H  0.65302168  0.00750218  0.24589952     0.07820
N496        N  0.80625155  0.04429158  0.11502161    -0.45630
C497        C  0.67325197  0.20358337  0.07342522     0.43460
N498        N  0.72922635  0.21658761  0.06277250     0.02350
C499        C  0.80492877  0.28929616  0.90727630    -0.05520
H500        H  0.71335040  0.17256942  0.88911040     0.07840
C501        C  0.80574444  0.09931654  0.95411515    -0.05880
Co502      Co  0.73881590  0.26016248  0.99478337     0.74180
N503        N  0.73002228  0.20981300  0.93164105    -0.25050
Co504      Co  0.78694451  0.20923675  0.93189076     0.74070
C505        C  0.78381742  0.09633767  0.92096599     0.43560
N506        N  0.80571955  0.13957514  0.04392072     0.01970
N507        N  0.78719541  0.15262042  0.93657980     0.02070
N508        N  0.77322485  0.32107493  0.94951350    -0.45900
H509        H  0.65387738  0.23518224  0.02291552     0.07830
N510        N  0.71153266  0.22911311  0.95574446     0.02360
N511        N  0.84373632  0.20845895  0.93309819     0.02100
C512        C  0.89915563  0.21095245  0.91414788     0.43700
N513        N  0.78664772  0.16042449  0.06628714    -0.24510
C514        C  0.77386310  0.32607045  0.03630055    -0.05430
N515        N  0.70764348  0.19786381  0.08496101    -0.45620
N516        N  0.86463349  0.22068261  0.90643667    -0.45840
C517        C  0.79854604  0.32989007  0.06720985     0.43480
N518        N  0.76801324  0.28555324  0.95318222     0.02350
N519        N  0.84245122  0.21641088  0.06264287    -0.24530
N520        N  0.71116397  0.23316914  0.03651645    -0.25020
N521        N  0.86179512  0.19579498  0.04029976     0.01990
H522        H  0.85598182  0.24774078  0.11008590     0.07880
H523        H  0.91956176  0.17659502  0.96276290     0.07910
N524        N  0.78670228  0.26622558  0.92922204    -0.25070
N525        N  0.80617183  0.13524396  0.96176642    -0.24690
N526        N  0.78585904  0.27337944  0.05967430     0.02350
C527        C  0.67033561  0.20159005  0.92450019     0.43750
C528        C  0.77233765  0.13989358  0.09257255    -0.05940
N529        N  0.86233906  0.19070036  0.95830652    -0.24680
H530        H  0.82085129  0.07845674  0.96847607     0.07900
N531        N  0.67583086  0.22434131  0.95296263    -0.45910
H532        H  0.75733847  0.15021654  0.11582776     0.07880
C533        C  0.90056266  0.21726970  0.07838351     0.43580
C534        C  0.67547295  0.22654963  0.04102819    -0.05430
Co535      Co  0.78596440  0.21684548  0.06342645     0.73820
N536        N  0.80655865  0.10490335  0.05486661    -0.45620
C537        C  0.79572423  0.32570472  0.92071886     0.43850
N538        N  0.80532789  0.29608984  0.07989590    -0.45610
Co539      Co  0.83473551  0.16457219  0.00112012     0.73890
C540        C  0.89788160  0.19065549  0.94859201    -0.05940
C541        C  0.70630057  0.19162662  0.91052915    -0.05500
N542        N  0.76760908  0.29008869  0.03364445    -0.25030
N543        N  0.77361574  0.13040232  0.91187927    -0.45790
H544        H  0.82382534  0.28157494  0.88591290     0.07860
C545        C  0.86465572  0.23180490  0.08675565    -0.05920
Cl546      Cl  0.78661762  0.21267954  0.99775845    -0.48920
C547        C  0.78538422  0.10322128  0.08526017     0.43610
H548        H  0.76378309  0.34684096  0.01791907     0.07820
N549        N  0.89683944  0.19458492  0.04946913    -0.45630
C550        C  0.07838268  0.77974219  0.66091816     0.43460
N551        N  0.07191651  0.76456605  0.71701879     0.02350
C552        C  0.91979985  0.68899599  0.79531039    -0.05520
H553        H  0.90126213  0.80775756  0.70682063     0.07840
C554        C  0.96217066  0.87870365  0.79648551    -0.05880
Co555      Co  0.00598451  0.71868041  0.72832849     0.74180
N556        N  0.94262693  0.76860563  0.72168140    -0.25050
Co557      Co  0.94373182  0.76832706  0.77830387     0.74070
C558        C  0.92866550  0.88010952  0.77463605     0.43560
N559        N  0.05357945  0.84037384  0.79445799     0.01970
N560        N  0.94639595  0.82464494  0.77894485     0.02070
N561        N  0.96088522  0.65708158  0.76209037    -0.45900
H562        H  0.02996462  0.74434082  0.64318597     0.07830
N563        N  0.96592619  0.74920948  0.70230249     0.02360
N564        N  0.94635227  0.76831569  0.83480337     0.02100
C565        C  0.92906323  0.76343715  0.89047803     0.43700
N566        N  0.07599879  0.82021869  0.77467941    -0.24510
C567        C  0.04879133  0.65371870  0.76236137    -0.05430
N568        N  0.09142911  0.78549526  0.69483151    -0.45620
N569        N  0.92092745  0.75425736  0.85596286    -0.45840
C570        C  0.07932364  0.65032372  0.78746427     0.43480
N571        N  0.96560788  0.69264287  0.75830820     0.02350
N572        N  0.07579359  0.76414047  0.83043854    -0.24530
N573        N  0.04611407  0.74651752  0.69974532    -0.25020
N574        N  0.05336882  0.78395889  0.85056351     0.01990
H575        H  0.12428173  0.73372368  0.84254492     0.07880
H576        H  0.97662014  0.79945722  0.91066850     0.07910
N577        N  0.94210852  0.71182528  0.77758169    -0.25070
N578        N  0.97124997  0.84302061  0.79735984    -0.24690
N579        N  0.07186011  0.70676938  0.77399898     0.02350
C580        C  0.93543724  0.77928275  0.66269159     0.43750
C581        C  0.10126682  0.84157810  0.75975100    -0.05940
N582        N  0.97123559  0.78672437  0.85317878    -0.24680
H583        H  0.97615628  0.90042438  0.81068155     0.07900
N584        N  0.96278270  0.75503998  0.66678407    -0.45910
H585        H  0.12463236  0.83217211  0.74428239     0.07880
C586        C  0.09272558  0.76269812  0.88823009     0.43580
C587        C  0.04858401  0.75369705  0.66399380    -0.05430
Co588      Co  0.07465016  0.76372801  0.77388420     0.73820
N589        N  0.06360616  0.87527212  0.79525802    -0.45620
C590        C  0.93226656  0.65258795  0.78491464     0.43850
N591        N  0.09191800  0.68430667  0.79398002    -0.45610
Co592      Co  0.01243821  0.81439019  0.82472784     0.73890
C593        C  0.96244217  0.78547549  0.88893970    -0.05940
C594        C  0.92203135  0.78836342  0.69896646    -0.05500
N595        N  0.04594347  0.68963090  0.75596505    -0.25030
N596        N  0.92077372  0.84564886  0.76525353    -0.45790
H597        H  0.89829117  0.69728101  0.81369069     0.07860
C598        C  0.10089620  0.74918492  0.85188992    -0.05920
Cl599      Cl  0.00921479  0.76638059  0.77648653    -0.48920
C600        C  0.09326819  0.87790212  0.77323509     0.43610
H601        H  0.03027707  0.63290799  0.75277829     0.07820
N602        N  0.06316751  0.78471048  0.88549449    -0.45630
C603        C  0.90211924  0.07048202  0.77715648     0.43460
N604        N  0.84632860  0.05337708  0.78121766     0.02350
C605        C  0.77138851  0.89626649  0.85003298    -0.05520
H606        H  0.85545147  0.87679838  0.74203460     0.07840
C607        C  0.77229234  0.95257965  0.66397653    -0.05880
Co608      Co  0.83568936  0.98619684  0.82551930     0.74180
N609        N  0.84217666  0.92430576  0.77360671    -0.25050
Co610      Co  0.78541238  0.92509602  0.77318822     0.74070
C611        C  0.79553655  0.92077764  0.65945584     0.43560
N612        N  0.77045564  0.03539602  0.70405893     0.01970
N613        N  0.78486384  0.92873703  0.71638195     0.02070
N614        N  0.80658963  0.93290247  0.88498139    -0.45900
H615        H  0.92183713  0.02190331  0.81207771     0.07830
N616        N  0.86182992  0.94638036  0.79419608     0.02360
N617        N  0.72862552  0.92782019  0.77393236     0.02100
C618        C  0.67243943  0.91962636  0.78749673     0.43700
N619        N  0.79037810  0.05806977  0.72356697    -0.24510
C620        C  0.80658554  0.03463657  0.89073637    -0.05430
N621        N  0.86771311  0.07903024  0.76798817    -0.45620
N622        N  0.70642877  0.90700602  0.79347573    -0.45840
C623        C  0.78485627  0.06818876  0.89283943     0.43480
N624        N  0.80566015  0.94419849  0.85044062     0.02350
N625        N  0.73283977  0.05721006  0.78103900    -0.24530
N626        N  0.86444878  0.02800567  0.79918171    -0.25020
N627        N  0.71361322  0.03436680  0.76107958     0.01990
H628        H  0.71751504  0.09594545  0.82291630     0.07880
H629        H  0.65436807  0.96933878  0.75414430     0.07910
N630        N  0.78611662  0.92235201  0.82958260    -0.25070
N631        N  0.76719068  0.95539659  0.70002839    -0.24690
N632        N  0.78978833  0.05199515  0.83693024     0.02350
C633        C  0.90035593  0.90815498  0.77235593     0.43750
C634        C  0.81160013  0.07746476  0.70077356    -0.05940
N635        N  0.71125810  0.95419268  0.75675210    -0.24680
H636        H  0.76208510  0.97116080  0.64352019     0.07900
N637        N  0.89685131  0.93705582  0.79503416    -0.45910
H638        H  0.83209789  0.09711057  0.70863999     0.07880
C639        C  0.67368688  0.06233803  0.79361573     0.43580
C640        C  0.90026126  0.03661962  0.79839320    -0.05430
Co641      Co  0.78980367  0.05601002  0.78059098     0.73820
N642        N  0.77721166  0.03787965  0.66860174    -0.45620
C643        C  0.78487437  0.90295424  0.88660556     0.43850
N644        N  0.77594883  0.07710419  0.85851395    -0.45610
Co645      Co  0.73986169  0.99497026  0.72972530     0.73890
C646        C  0.67542743  0.95087458  0.76325829    -0.05940
C647        C  0.86423682  0.89989469  0.75816542    -0.05500
N648        N  0.80788845  0.02656206  0.85484293    -0.25030
N649        N  0.80275083  0.90761262  0.69306765    -0.45790
H650        H  0.75604668  0.87336971  0.83963997     0.07860
C651        C  0.70987375  0.07620854  0.80241326    -0.05920
Cl652      Cl  0.78776743  0.99055244  0.77728483    -0.48920
C653        C  0.80265969  0.06411287  0.66437533     0.43610
H654        H  0.82062024  0.02006325  0.91219348     0.07820
N655        N  0.67814884  0.03632784  0.76795646    -0.45630
C656        C  0.78489604  0.88087578  0.07851800     0.43460
N657        N  0.78885987  0.82480253  0.06249833     0.02350
C658        C  0.86520700  0.74603230  0.91091714    -0.05520
H659        H  0.75686641  0.82726427  0.88414329     0.07840
C660        C  0.67592450  0.74932772  0.95940236    -0.05880
Co661      Co  0.83584872  0.81279421  0.99741912     0.74180
N662        N  0.78703356  0.81672402  0.93290593    -0.25050
Co663      Co  0.78655660  0.76017655  0.93571111     0.74070
C664        C  0.67286966  0.77233984  0.92723099     0.43560
N665        N  0.71262504  0.74902853  0.04343147     0.01970
N666        N  0.72938294  0.76012469  0.93685687     0.02070
N667        N  0.89760116  0.78293640  0.94817151    -0.45900
H668        H  0.82171435  0.89941489  0.03077581     0.07830
N669        N  0.80633402  0.83754696  0.95506944     0.02360
N670        N  0.78719330  0.70347320  0.94055138     0.02100
C671        C  0.80164277  0.64709060  0.93619908     0.43700
N672        N  0.73145291  0.76898475  0.06662798    -0.24510
C673        C  0.89916192  0.78564674  0.04929766    -0.05430
N674        N  0.77515012  0.84671097  0.08743390    -0.45620
N675        N  0.80835956  0.68050313  0.92227184    -0.45840
C676        C  0.90015298  0.76480646  0.08346162     0.43480
N677        N  0.86262077  0.78158821  0.95779665     0.02350
N678        N  0.78798970  0.71149812  0.06956252    -0.24530
N679        N  0.80765888  0.84236758  0.03724846    -0.25020
N680        N  0.76900298  0.69207576  0.04607151     0.01990
H681        H  0.82716445  0.69636363  0.11092158     0.07880
H682        H  0.76431370  0.63095071  0.98375205     0.07910
N683        N  0.84314150  0.76105649  0.93557012    -0.25070
N684        N  0.71172838  0.74340418  0.96335508    -0.24690
N685        N  0.84481365  0.76868010  0.06513908     0.02350
C686        C  0.78526405  0.87411753  0.91451632     0.43750
C687        C  0.70831493  0.79039763  0.08522316    -0.05940
N688        N  0.76812401  0.68714721  0.96634852    -0.24680
H689        H  0.65469425  0.74029803  0.97783350     0.07900
N690        N  0.80685089  0.87228966  0.94444120    -0.45910
H691        H  0.71571253  0.81078355  0.10516214     0.07880
C692        C  0.79882875  0.65222079  0.07667895     0.43580
C693        C  0.80695289  0.87828820  0.04518780    -0.05430
Co694      Co  0.78822865  0.76840604  0.06678864     0.73820
N695        N  0.67718090  0.75597355  0.04474112    -0.45620
C696        C  0.90117245  0.76051592  0.91900677     0.43850
N697        N  0.86553325  0.75570346  0.09139637    -0.45610
Co698      Co  0.73956795  0.71723374  0.00486283     0.73890
C699        C  0.77472133  0.65123101  0.96503468    -0.05940
C700        C  0.77222486  0.83742413  0.90710945    -0.05500
N701        N  0.86358308  0.78638456  0.03991572    -0.25030
N702        N  0.70716258  0.77853731  0.91505648    -0.45790
H703        H  0.85641970  0.73020154  0.88762982     0.07860
C704        C  0.80754072  0.68856797  0.09039874    -0.05920
Cl705      Cl  0.78768259  0.76484335  0.00117770    -0.48920
C706        C  0.67247556  0.78173659  0.07059096     0.43610
H707        H  0.92110769  0.79931353  0.03498779     0.07820
N708        N  0.77528692  0.65665409  0.04891282    -0.45630
C709        C  0.93016027  0.55220336  0.80821440     0.24600
C710        C  0.90695800  0.55166162  0.83876818    -0.23510
C711        C  0.88171106  0.58085658  0.83947676     0.19510
C712        C  0.89006653  0.61419799  0.82304007     0.24540
C713        C  0.92095808  0.61719768  0.80054780    -0.23450
C714        C  0.93913148  0.58491934  0.79085925     0.19440
F715        F  0.96310869  0.58416964  0.76256393    -0.13410
F716        F  0.93491646  0.52152398  0.78887213    -0.15770
F717        F  0.86599447  0.64208626  0.82653802    -0.15770
F718        F  0.84633422  0.57523268  0.84811806    -0.13410
C719        C  0.82611674  0.55025691  0.91327020     0.24600
C720        C  0.86459398  0.55158539  0.91266665    -0.23510
C721        C  0.88238625  0.58401292  0.92268900     0.19510
C722        C  0.86192008  0.61546314  0.93024757     0.24540
C723        C  0.82355683  0.61429548  0.92916855    -0.23450
C724        C  0.80585684  0.58127563  0.92183357     0.19440
F725        F  0.76887117  0.57976001  0.92023109    -0.13410
F726        F  0.80823626  0.52027148  0.90089406    -0.15770
F727        F  0.87944827  0.64696970  0.93869775    -0.15770
F728        F  0.91936890  0.58557078  0.92335003    -0.13410
C729        C  0.93129439  0.38786363  0.86620949     0.24600
C730        C  0.92104272  0.42041145  0.84865628    -0.23510
C731        C  0.91804904  0.42089433  0.81035429     0.19510
C732        C  0.92571384  0.38978323  0.78998095     0.24540
C733        C  0.93444173  0.35710078  0.80754628    -0.23450
C734        C  0.93712078  0.35612274  0.84578116     0.19440
F735        F  0.94663861  0.32482997  0.86314790    -0.13410
F736        F  0.93590440  0.38689580  0.90294085    -0.15770
F737        F  0.92363139  0.39127181  0.75301542    -0.15770
F738        F  0.90640070  0.45124204  0.79265819    -0.13410
C739        C  0.84147039  0.40689724  0.87642699     0.24600
C740        C  0.86248215  0.42091093  0.90555780    -0.23510
C741        C  0.86038354  0.40345357  0.93968692     0.19510
C742        C  0.83696027  0.37378547  0.94473837     0.24540
C743        C  0.81770438  0.35888794  0.91528491    -0.23450
C744        C  0.82048553  0.37529157  0.88092352     0.19440
F745        F  0.80220766  0.36122757  0.85197439    -0.13410
F746        F  0.84132427  0.42379729  0.84346387    -0.15770
F747        F  0.83400248  0.35860058  0.97825421    -0.15770
F748        F  0.88210675  0.41371686  0.96773346    -0.13410
C749        C  0.91652022  0.55407817  0.18339404     0.24600
C750        C  0.92156375  0.55543336  0.14531544    -0.23510
C751        C  0.93395766  0.58801129  0.12924325     0.19510
C752        C  0.94021850  0.61891627  0.15085718     0.24540
C753        C  0.93477268  0.61741185  0.18881930    -0.23450
C754        C  0.92333961  0.58472997  0.20496308     0.19440
F755        F  0.91798515  0.58277844  0.24159325    -0.13410
F756        F  0.90409847  0.52320947  0.19964263    -0.15770
F757        F  0.95275891  0.64994787  0.13494053    -0.15770
F758        F  0.94072900  0.58968233  0.09286576    -0.13410
C759        C  0.86594357  0.57636756  0.05740646     0.24600
C760        C  0.86316693  0.55547180  0.08947351    -0.23510
C761        C  0.83919813  0.56688420  0.11732395     0.19510
C762        C  0.81873998  0.59882616  0.11343199     0.24540
C763        C  0.82111909  0.61923970  0.08124568    -0.23450
C764        C  0.84466165  0.60778515  0.05314867     0.19440
F765        F  0.84774330  0.62763211  0.02200352    -0.13410
F766        F  0.89014377  0.56729391  0.03086136    -0.15770
F767        F  0.79615137  0.60955252  0.14082200    -0.15770
F768        F  0.83578787  0.54705063  0.14844274    -0.13410
C769        C  0.90678726  0.42119834  0.17953362     0.24600
C770        C  0.92162278  0.42342212  0.14415226    -0.23510
C771        C  0.94035345  0.39324261  0.12975442     0.19510
C772        C  0.94290556  0.36085978  0.14990899     0.24540
C773        C  0.92851215  0.35897305  0.18545153    -0.23450
C774        C  0.91095759  0.38949189  0.20033905     0.19440
F775        F  0.89708400  0.38822891  0.23470648    -0.13410
F776        F  0.88788791  0.44969369  0.19376552    -0.15770
F777        F  0.95984344  0.33147518  0.13497400    -0.15770
F778        F  0.95636867  0.39523338  0.09641821    -0.13410
C779        C  0.80954600  0.38865166  0.09925168     0.24600
C780        C  0.82165551  0.36161210  0.07507193    -0.23510
C781        C  0.85573210  0.36536212  0.05784699     0.19510
C782        C  0.87657308  0.39688023  0.06314849     0.24540
C783        C  0.86472382  0.42371639  0.08775006    -0.23450
C784        C  0.83119799  0.41933974  0.10592989     0.19440
F785        F  0.81948606  0.44493187  0.13006393    -0.13410
F786        F  0.77699314  0.38507375  0.11664650    -0.15770
F787        F  0.90797508  0.40142119  0.04400887    -0.15770
F788        F  0.86878837  0.33845086  0.03597662    -0.13410
C789        C  0.90694429  0.48967217  0.01723232     0.24600
C790        C  0.87426078  0.48878823  0.03688124    -0.23510
C791        C  0.84128144  0.48721286  0.01720751     0.19510
C792        C  0.84182029  0.48528476  0.97845147     0.24540
C793        C  0.87526107  0.48794079  0.95905626    -0.23450
C794        C  0.90709708  0.49291359  0.97957882     0.19440
F795        F  0.93857783  0.50311175  0.96362414    -0.13410
F796        F  0.93932854  0.48774615  0.03466209    -0.15770
F797        F  0.80993628  0.48128874  0.96028324    -0.15770
F798        F  0.80895834  0.48709422  0.03531615    -0.13410
C799        C  0.11244443  0.55532701  0.18428107     0.24600
C800        C  0.10163958  0.55477435  0.14748643    -0.23510
C801        C  0.08410107  0.58546174  0.13270388     0.19510
C802        C  0.07969842  0.61702478  0.15365611     0.24540
C803        C  0.09142386  0.61780280  0.19008851    -0.23450
C804        C  0.10702886  0.58655765  0.20556007     0.19440
F805        F  0.11774266  0.58662584  0.24099448    -0.13410
F806        F  0.12867870  0.52568274  0.19940608    -0.15770
F807        F  0.06319624  0.64659468  0.13866758    -0.15770
F808        F  0.07026668  0.58464294  0.09848451    -0.13410
C809        C  0.14676790  0.58131692  0.06558281     0.24600
C810        C  0.15838388  0.55423177  0.08994817    -0.23510
C811        C  0.19166939  0.55852872  0.10844380     0.19510
C812        C  0.21334218  0.58932376  0.10219649     0.24540
C813        C  0.20119631  0.61677912  0.07859463    -0.23450
C814        C  0.16732383  0.61315707  0.06122921     0.19440
F815        F  0.15413664  0.64066128  0.04035642    -0.13410
F816        F  0.11591887  0.57670673  0.04573994    -0.15770
F817        F  0.24596509  0.59253987  0.11935274    -0.15770
F818        F  0.20327650  0.53261210  0.13219687    -0.13410
C819        C  0.06741612  0.40263543  0.14111657     0.24600
C820        C  0.09958604  0.42269865  0.14664521    -0.23510
C821        C  0.12492981  0.41072739  0.17281055     0.19510
C822        C  0.11810250  0.37929247  0.19334262     0.24540
C823        C  0.08556613  0.35989607  0.18844675    -0.23450
C824        C  0.06030487  0.37165390  0.16221526     0.19440
F825        F  0.02901613  0.35271647  0.15672353    -0.13410
F826        F  0.04320722  0.41274805  0.11502982    -0.15770
F827        F  0.14276267  0.36828721  0.21862696    -0.15770
F828        F  0.15618795  0.42973937  0.17857965    -0.13410
C829        C  0.19525233  0.42250051  0.09575841     0.24600
C830        C  0.15729936  0.42233919  0.09006893    -0.23510
C831        C  0.14026925  0.39005915  0.07831703     0.19510
C832        C  0.16052573  0.35800921  0.07434137     0.24540
C833        C  0.19824538  0.35808303  0.08097724    -0.23450
C834        C  0.21562654  0.39064333  0.09088758     0.19440
F835        F  0.25215754  0.39127357  0.09690996    -0.13410
F836        F  0.21239464  0.45329383  0.10715218    -0.15770
F837        F  0.14349760  0.32713113  0.06300478    -0.15770
F838        F  0.10418968  0.38963375  0.07024730    -0.13410
C839        C  0.03082100  0.50487281  0.10684011     0.24600
C840        C  0.04992854  0.49093879  0.13688422    -0.23510
C841        C  0.02989103  0.47821002  0.16722955     0.19510
C842        C  0.99130100  0.47790537  0.16641008     0.24540
C843        C  0.97246579  0.49145068  0.13570737    -0.23450
C844        C  0.99301591  0.50638081  0.10689094     0.19440
F845        F  0.97652256  0.52248416  0.07810504    -0.13410
F846        F  0.04889382  0.51629399  0.07650221    -0.15770
F847        F  0.97259865  0.46532774  0.19578222    -0.15770
F848        F  0.04755666  0.46574681  0.19723169    -0.13410
C849        C  0.10578154  0.55505836  0.81580096     0.24600
C850        C  0.09795385  0.55553744  0.85342798    -0.23510
C851        C  0.08453796  0.58775169  0.86936101     0.19510
C852        C  0.07959470  0.61911672  0.84806393     0.24540
C853        C  0.08704899  0.61832719  0.81041860    -0.23450
C854        C  0.09987418  0.58606032  0.79439999     0.19440
F855        F  0.10731855  0.58483248  0.75810192    -0.13410
F856        F  0.11990329  0.52468007  0.79992990    -0.15770
F857        F  0.06635503  0.64989677  0.86390196    -0.15770
F858        F  0.07550294  0.58857622  0.90527747    -0.13410
C859        C  0.17211095  0.60899947  0.94396333     0.24600
C860        C  0.19935998  0.61753295  0.91837590    -0.23510
C861        C  0.20441115  0.59481196  0.88802958     0.19510
C862        C  0.18277633  0.56359852  0.88367035     0.24540
C863        C  0.15555590  0.55489259  0.90944618    -0.23450
C864        C  0.15033981  0.57788040  0.93964767     0.19440
F865        F  0.12391883  0.57044204  0.96457697    -0.13410
F866        F  0.16602361  0.63156876  0.97254337    -0.15770
F867        F  0.18827192  0.54179367  0.85420347    -0.15770
F868        F  0.23034137  0.60280769  0.86274775    -0.13410
C869        C  0.06638030  0.40433640  0.85084123     0.24600
C870        C  0.09966037  0.42357661  0.85083908    -0.23510
C871        C  0.12848270  0.41077267  0.82872585     0.19510
C872        C  0.12443341  0.37900696  0.80788983     0.24540
C873        C  0.09099824  0.36048450  0.80745616    -0.23450
C874        C  0.06187684  0.37359229  0.82867617     0.19440
F875        F  0.02950668  0.35556956  0.82920786    -0.13410
F876        F  0.03889939  0.41374996  0.87376236    -0.15770
F877        F  0.15301195  0.36653452  0.78781703    -0.15770
F878        F  0.16079984  0.42887265  0.82770854    -0.13410
C879        C  0.13863726  0.38912079  0.91866763     0.24600
C880        C  0.15507726  0.42298128  0.91089422    -0.23510
C881        C  0.19346701  0.42542777  0.91110333     0.19510
C882        C  0.21485911  0.39476468  0.91850009     0.24540
C883        C  0.19844298  0.36078145  0.92459999    -0.23450
C884        C  0.16017309  0.35810134  0.92461305     0.19440
F885        F  0.14363660  0.32571965  0.93176999    -0.13410
F886        F  0.10184249  0.38619884  0.92143778    -0.15770
F887        F  0.25175509  0.39805043  0.91872877    -0.15770
F888        F  0.21037055  0.45747973  0.90332487    -0.13410
C889        C  0.17580120  0.50204897  0.98024228     0.24600
C890        C  0.14571960  0.48713473  0.96143160    -0.23510
C891        C  0.11772530  0.47072621  0.98197946     0.19510
C892        C  0.11812379  0.47139262  0.01986806     0.24540
C893        C  0.14737028  0.48704653  0.03902403    -0.23450
C894        C  0.17668181  0.50188540  0.01884039     0.19440
F895        F  0.20610960  0.51590668  0.03627865    -0.13410
F896        F  0.20437223  0.51629669  0.96143898    -0.15770
F897        F  0.08880016  0.45763536  0.03795443    -0.15770
F898        F  0.08905066  0.45442740  0.96533682    -0.13410
C899        C  0.02547414  0.48815219  0.89273606     0.24600
C900        C  0.04724232  0.49017151  0.86136182    -0.23510
C901        C  0.02999805  0.48819477  0.82726010     0.19510
C902        C  0.99154997  0.48540521  0.82498972     0.24540
C903        C  0.96926468  0.48776891  0.85688636    -0.23450
C904        C  0.98774802  0.48440282  0.89021395     0.19440
F905        F  0.97023167  0.47043065  0.91933584    -0.13410
F906        F  0.04108784  0.48632437  0.92613529    -0.15770
F907        F  0.97769323  0.47489965  0.79246845    -0.15770
F908        F  0.05034774  0.48671244  0.79631747    -0.13410
C909        C  0.57909191  0.88852884  0.81620700     0.24600
C910        C  0.57851373  0.89827943  0.85331660    -0.23510
C911        C  0.60952323  0.91436510  0.86897535     0.19510
C912        C  0.64075533  0.92036752  0.84772801     0.24540
C913        C  0.64083668  0.91116850  0.81049158    -0.23450
C914        C  0.60979303  0.89557776  0.79479794     0.19440
F915        F  0.60946009  0.88671907  0.75881792    -0.13410
F916        F  0.54998120  0.87173523  0.80079433    -0.15770
F917        F  0.67051660  0.93608319  0.86314341    -0.15770
F918        F  0.60929841  0.92473568  0.90452164    -0.13410
C919        C  0.60285919  0.84680288  0.93902920     0.24600
C920        C  0.57961355  0.84046912  0.90919167    -0.23510
C921        C  0.58839265  0.81252818  0.88431100     0.19510
C922        C  0.61947860  0.79094123  0.88946658     0.24540
C923        C  0.64186635  0.79664804  0.91986603    -0.23450
C924        C  0.63344153  0.82471698  0.94454965     0.19440
F925        F  0.65502597  0.83080851  0.97400398    -0.13410
F926        F  0.59669467  0.87468086  0.96248042    -0.15770
F927        F  0.62723747  0.76391268  0.86533385    -0.15770
F928        F  0.56658742  0.80604710  0.85511839    -0.13410
C929        C  0.44645874  0.89101797  0.81552745     0.24600
C930        C  0.44644647  0.89625355  0.85355323    -0.23510
C931        C  0.41454331  0.90875464  0.87084047     0.19510
C932        C  0.38256025  0.91360203  0.85071720     0.24540
C933        C  0.38255734  0.90741028  0.81287926    -0.23450
C934        C  0.41485172  0.89703482  0.79528617     0.19440
F935        F  0.41542980  0.89161197  0.75863068    -0.13410
F936        F  0.47686788  0.87909529  0.79808521    -0.15770
F937        F  0.35189528  0.92535496  0.86794748    -0.15770
F938        F  0.41453600  0.91693918  0.90693332    -0.13410
C939        C  0.43728226  0.81142901  0.88341753     0.24600
C940        C  0.44733251  0.83803199  0.90921776    -0.23510
C941        C  0.42487508  0.84397076  0.93976130     0.19510
C942        C  0.39293951  0.82353506  0.94433463     0.24540
C943        C  0.38303063  0.79695609  0.91865670    -0.23450
C944        C  0.40525530  0.79110360  0.88805527     0.19440
F945        F  0.39595434  0.76570103  0.86277294    -0.13410
F946        F  0.45845136  0.80544124  0.85354579    -0.15770
F947        F  0.37090772  0.83039392  0.97321438    -0.15770
F948        F  0.43323068  0.87026212  0.96446289    -0.13410
C949        C  0.59397379  0.93099795  0.14564476     0.24600
C950        C  0.57445296  0.89798986  0.14725628    -0.23510
C951        C  0.58748045  0.86960490  0.16962618     0.19510
C952        C  0.61947416  0.87408607  0.18984188     0.24540
C953        C  0.63799176  0.90749557  0.18921449    -0.23450
C954        C  0.62493418  0.93601368  0.16727867     0.19440
F955        F  0.64300628  0.96828517  0.16587258    -0.13410
F956        F  0.58393117  0.95783433  0.12221779    -0.15770
F957        F  0.63213512  0.84602171  0.21040135    -0.15770
F958        F  0.56936774  0.83732971  0.17146826    -0.13410
C959        C  0.57385854  0.80558693  0.08716757     0.24600
C960        C  0.57477209  0.84401911  0.08661842    -0.23510
C961        C  0.60772378  0.86171921  0.07798206     0.19510
C962        C  0.63973750  0.84149074  0.07319881     0.24540
C963        C  0.63886130  0.80317665  0.07506343    -0.23450
C964        C  0.60552916  0.78537538  0.08077931     0.19440
F965        F  0.60396422  0.74837722  0.08177866    -0.13410
F966        F  0.54251878  0.78756497  0.09531715    -0.15770
F967        F  0.67141385  0.85929834  0.06590124    -0.15770
F968        F  0.60887889  0.89848423  0.07389681    -0.13410
C969        C  0.41174633  0.91496260  0.13439602     0.24600
C970        C  0.44235522  0.89670594  0.14847364    -0.23510
C971        C  0.44160888  0.88423742  0.18476046     0.19510
C972        C  0.41058643  0.88951113  0.20645861     0.24540
C973        C  0.37973018  0.90670705  0.19192951    -0.23450
C974        C  0.38046513  0.91946364  0.15583347     0.19440
F975        F  0.35130170  0.93744858  0.14181601    -0.13410
F976        F  0.41243282  0.92953744  0.10044815    -0.15770
F977        F  0.41054723  0.87772210  0.24158050    -0.15770
F978        F  0.47096030  0.86680514  0.19906768    -0.13410
C979        C  0.41555812  0.85308474  0.06567988     0.24600
C980        C  0.44287177  0.84146117  0.08976089    -0.23510
C981        C  0.43894894  0.80796268  0.10803040     0.19510
C982        C  0.40829992  0.78609505  0.10190508     0.24540
C983        C  0.38064541  0.79813265  0.07851945    -0.23450
C984        C  0.38394156  0.83216364  0.06123428     0.19440
F985        F  0.35639794  0.84510472  0.04026494    -0.13410
F986        F  0.41967228  0.88436269  0.04630419    -0.15770
F987        F  0.40542804  0.75334607  0.11897071    -0.15770
F988        F  0.46506667  0.79637900  0.13154143    -0.13410
C989        C  0.50110007  0.82004385  0.98087882     0.24600
C990        C  0.51308332  0.85089700  0.96123718    -0.23510
C991        C  0.52272893  0.88248240  0.98071027     0.19510
C992        C  0.52114329  0.88334628  0.01854650     0.24540
C993        C  0.50914146  0.85289982  0.03845313    -0.23450
C994        C  0.49895418  0.82109443  0.01937560     0.19440
F995        F  0.48736447  0.79117087  0.03782953    -0.13410
F996        F  0.49131246  0.78922221  0.96287913    -0.15770
F997        F  0.53133389  0.91444728  0.03592232    -0.15770
F998        F  0.53436834  0.91283981  0.96298341    -0.13410
C999        C  0.57563520  0.08141352  0.81896634     0.24600
C1000       C  0.57548547  0.07460980  0.85678447    -0.23510
C1001       C  0.60807942  0.06369603  0.87374622     0.19510
C1002       C  0.64030199  0.06032468  0.85332689     0.24540
C1003       C  0.64010793  0.06662205  0.81544729    -0.23450
C1004       C  0.60742135  0.07648156  0.79835188     0.19440
F1005       F  0.60667179  0.08280478  0.76185527    -0.13410
F1006       F  0.54526159  0.09437448  0.80223733    -0.15770
F1007       F  0.67154228  0.05029384  0.87043337    -0.15770
F1008       F  0.60876999  0.05684677  0.91014112    -0.13410
C1009       C  0.62390948  0.15877794  0.94891392     0.24600
C1010       C  0.63690460  0.17983224  0.91977675    -0.23510
C1011       C  0.61892679  0.17830550  0.88611880     0.19510
C1012       C  0.58762657  0.15670214  0.88215674     0.24540
C1013       C  0.57540130  0.13429035  0.91103807    -0.23450
C1014       C  0.59449011  0.13503548  0.94424482     0.19440
F1015       F  0.58560770  0.11203362  0.97181349    -0.13410
F1016       F  0.64070300  0.16038880  0.98165797    -0.15770
F1017       F  0.56922632  0.15764014  0.85007468    -0.15770
F1018       F  0.63123809  0.19824720  0.85739890    -0.13410
C1019       C  0.42029888  0.04643168  0.86123757     0.24600
C1020       C  0.44288698  0.07720160  0.85670272    -0.23510
C1021       C  0.43434237  0.10258571  0.82916406     0.19510
C1022       C  0.40424653  0.09699533  0.80629271     0.24540
C1023       C  0.38281507  0.06554096  0.81010682    -0.23450
C1024       C  0.39095507  0.04039811  0.83774481     0.19440
F1025       F  0.37006679  0.01011288  0.84228927    -0.13410
F1026       F  0.42560197  0.02264569  0.88893374    -0.15770
F1027       F  0.39656715  0.12175511  0.77985997    -0.15770
F1028       F  0.45545316  0.13264231  0.82425275    -0.13410
C1029       C  0.41079397  0.11813514  0.92683868     0.24600
C1030       C  0.44385659  0.13357045  0.91489995    -0.23510
C1031       C  0.44545259  0.17135899  0.90815263     0.19510
C1032       C  0.41466878  0.19329522  0.91337878     0.24540
C1033       C  0.38151673  0.17772584  0.92442274    -0.23450
C1034       C  0.37967862  0.13998896  0.93103262     0.19440
F1035       F  0.34805974  0.12455006  0.94270799    -0.13410
F1036       F  0.40883291  0.08211484  0.93509267    -0.15770
F1037       F  0.41697576  0.22969563  0.90688962    -0.15770
F1038       F  0.47666582  0.18688219  0.89551841    -0.13410
C1039       C  0.51946046  0.96746290  0.83244406     0.24600
C1040       C  0.51037494  0.94712206  0.86381036    -0.23510
C1041       C  0.49875531  0.96586481  0.89505761     0.19510
C1042       C  0.49832259  0.00363525  0.89605143     0.24540
C1043       C  0.50834201  0.02459411  0.86559307    -0.23450
C1044       C  0.51806415  0.00602736  0.83319228     0.19440
F1045       F  0.52481374  0.02473091  0.80204976    -0.13410
F1046       F  0.52850612  0.95021462  0.80096873    -0.15770
F1047       F  0.48594265  0.01973050  0.92679563    -0.15770
F1048       F  0.48708273  0.94747934  0.92501194    -0.13410
C1049       C  0.63903009  0.05331815  0.15238130     0.24600
C1050       C  0.63943232  0.06493841  0.18894156    -0.23510
C1051       C  0.60868043  0.08215245  0.20370993     0.19510
C1052       C  0.57823638  0.08881740  0.18187601     0.24540
C1053       C  0.57728470  0.07641919  0.14556491    -0.23450
C1054       C  0.60772498  0.05818235  0.13106368     0.19200
F1055       F  0.60698221  0.04476234  0.09659206    -0.13410
F1056       F  0.66862061  0.03649256  0.13768915    -0.15770
F1057       F  0.54932228  0.10699116  0.19628920    -0.15770
F1058       F  0.60834137  0.09283503  0.23918841    -0.13410
C1059       C  0.58536855  0.16965280  0.11452058     0.24600
C1060       C  0.57953478  0.13771873  0.09414827    -0.23510
C1061       C  0.60574195  0.12646717  0.06857557     0.19510
C1062       C  0.63774759  0.14668061  0.06391322     0.24540
C1063       C  0.64250186  0.17972682  0.08266534    -0.23450
C1064       C  0.61650648  0.19084535  0.10843606     0.19440
F1065       F  0.62129401  0.22219906  0.12755504    -0.13410
F1066       F  0.56062084  0.18041519  0.13996957    -0.15770
F1067       F  0.66416052  0.13409649  0.04115670    -0.15770
F1068       F  0.59994788  0.09648869  0.04765769    -0.13410
C1069       C  0.41315266  0.06795320  0.12438481     0.24600
C1070       C  0.44594829  0.07408472  0.14319442    -0.23510
C1071       C  0.44685017  0.06890063  0.18136010     0.19510
C1072       C  0.41503021  0.06087204  0.20061330     0.24540
C1073       C  0.38167631  0.05850351  0.18228030    -0.23450
C1074       C  0.38101115  0.06081833  0.14391040     0.19440
F1075       F  0.34928983  0.05640672  0.12539177    -0.13410
F1076       F  0.41190337  0.07107898  0.08749911    -0.15770
F1077       F  0.41636991  0.05825408  0.23755823    -0.15770
F1078       F  0.47782619  0.07535629  0.20049341    -0.13410
C1079       C  0.41972610  0.14966068  0.12957357     0.24600
C1080       C  0.44844883  0.14949970  0.10361196    -0.23510
C1081       C  0.44690127  0.17839329  0.07828417     0.19510
C1082       C  0.41411802  0.19588128  0.07025114     0.24540
C1083       C  0.38243288  0.18748540  0.09002244    -0.23450
C1084       C  0.38618366  0.16609975  0.12158752     0.19440
F1085       F  0.35844014  0.16280421  0.14594191    -0.13410
F1086       F  0.42529974  0.13889146  0.16441800    -0.15770
F1087       F  0.41412591  0.22233012  0.04430918    -0.15770
F1088       F  0.47742162  0.19497913  0.06683704    -0.13410
C1089       C  0.52172631  0.00786740  0.16545380     0.24600
C1090       C  0.50904450  0.02690320  0.13435296    -0.23510
C1091       C  0.49207308  0.00642172  0.10667144     0.19510
C1092       C  0.49219581  0.96853414  0.10728790     0.24540
C1093       C  0.50616865  0.94930805  0.13726977    -0.23450
C1094       C  0.51950719  0.96937472  0.16719471     0.19440
F1095       F  0.53111380  0.95176376  0.19759522    -0.13410
F1096       F  0.53488053  0.02617942  0.19468296    -0.15770
F1097       F  0.47919392  0.95051442  0.07767071    -0.15770
F1098       F  0.47459671  0.02290930  0.07870762    -0.13410
C1099       C  0.50944018  0.09621327  0.02514608     0.24600
C1100       C  0.51286558  0.12983908  0.04292626    -0.23510
C1101       C  0.52118465  0.16045515  0.02060936     0.19510
C1102       C  0.51735343  0.15853013  0.98216354     0.24540
C1103       C  0.51020088  0.12485765  0.96509678    -0.23450
C1104       C  0.50846416  0.09373893  0.98728086     0.19440
F1105       F  0.50964107  0.06019602  0.97229836    -0.13410
F1106       F  0.51196063  0.06495235  0.04433939    -0.15770
F1107       F  0.52292623  0.18884069  0.96165819    -0.15770
F1108       F  0.53511367  0.19138368  0.03544303    -0.13410
C1109       C  0.92779066  0.85954597  0.59887730     0.24600
C1110       C  0.91814947  0.84230375  0.56600735    -0.23510
C1111       C  0.91591743  0.80396082  0.56490843     0.19510
C1112       C  0.92214278  0.78334708  0.59634174     0.24540
C1113       C  0.92981547  0.80079536  0.62944480    -0.23450
C1114       C  0.93292566  0.83898116  0.63050322     0.19440
F1115       F  0.94204073  0.85631272  0.66194665    -0.13410
F1116       F  0.93300763  0.89613567  0.60031326    -0.15770
F1117       F  0.91953922  0.74642616  0.59475967    -0.15770
F1118       F  0.90679643  0.78653356  0.53351828    -0.13410
C1119       C  0.81436459  0.87975133  0.60873574     0.24600
C1120       C  0.81790869  0.91299552  0.62722795    -0.23510
C1121       C  0.84287133  0.93918568  0.61465927     0.19510
C1122       C  0.86425880  0.93217186  0.58389472     0.24540
C1123       C  0.86020643  0.89919385  0.56468225    -0.23450
C1124       C  0.83507439  0.87305602  0.57735083     0.19440
F1125       F  0.83068589  0.84103513  0.55923802    -0.13410
F1126       F  0.79034215  0.85417454  0.62066724    -0.15770
F1127       F  0.89000085  0.95687137  0.57404760    -0.15770
F1128       F  0.84725161  0.97115999  0.63286334    -0.13410
C1129       C  0.82522405  0.89047558  0.43240288     0.24600
C1130       C  0.86287368  0.89798361  0.43246307    -0.23510
C1131       C  0.87952217  0.91105947  0.40046568     0.19510
C1132       C  0.85918148  0.91473635  0.36840859     0.24540
C1133       C  0.82166869  0.90672439  0.36837717    -0.23450
C1134       C  0.80469748  0.89531881  0.40070641     0.19440
F1135       F  0.76841318  0.88788057  0.40125974    -0.13410
F1136       F  0.80852555  0.87753430  0.46289343    -0.15770
F1137       F  0.87583527  0.92717434  0.33769265    -0.15770
F1138       F  0.91520537  0.92087489  0.40046186    -0.13410
C1139       C  0.89590928  0.81383652  0.42432212     0.24600
C1140       C  0.92042919  0.84177686  0.43391846    -0.23510
C1141       C  0.95093814  0.84846159  0.41172042     0.19510
C1142       C  0.95692570  0.82724454  0.38052636     0.24540
C1143       C  0.93270402  0.79908566  0.37122279    -0.23450
C1144       C  0.90199168  0.79265823  0.39310598     0.19440
F1145       F  0.87829290  0.76552837  0.38454966    -0.13410
F1146       F  0.86616977  0.80702006  0.44541753    -0.15770
F1147       F  0.98604707  0.83444391  0.35893467    -0.15770
F1148       F  0.97464444  0.87562989  0.42013162    -0.13410
C1149       C  0.95700896  0.12620100  0.58473690     0.24600
C1150       C  0.92497225  0.13126557  0.56436131    -0.23510
C1151       C  0.89952330  0.15774126  0.57568788     0.19510
C1152       C  0.90585719  0.17869011  0.60692280     0.24540
C1153       C  0.93811141  0.17413008  0.62677444    -0.23450
C1154       C  0.96375336  0.14788202  0.61549047     0.19440
F1155       F  0.99503923  0.14293878  0.63461447    -0.13410
F1156       F  0.98147835  0.10010697  0.57508304    -0.15770
F1157       F  0.88092368  0.20405421  0.61733073    -0.15770
F1158       F  0.86853240  0.16336474  0.55626292    -0.13410
C1159       C  0.88247195  0.06403105  0.59842678     0.24600
C1160       C  0.86583549  0.07635161  0.56616141    -0.23510
C1161       C  0.82811954  0.08368454  0.56637933     0.19510
C1162       C  0.80757175  0.07931876  0.59831107     0.24540
C1163       C  0.82450378  0.06858213  0.63082406    -0.23450
C1164       C  0.86207857  0.06079107  0.63068644     0.19440
F1165       F  0.87878422  0.04901448  0.66154060    -0.13410
F1166       F  0.91828735  0.05469911  0.59856731    -0.15770
F1167       F  0.77127812  0.08668815  0.59779689    -0.15770
F1168       F  0.81137712  0.09625221  0.53585400    -0.13410
C1169       C  0.93073000  0.11505020  0.39848419     0.24600
C1170       C  0.92239441  0.13153126  0.43214538    -0.23510
C1171       C  0.91972888  0.16984500  0.43390641     0.19510
C1172       C  0.92416073  0.19110808  0.40248317     0.24540
C1173       C  0.93031963  0.17444899  0.36858093    -0.23450
C1174       C  0.93396217  0.13626172  0.36684011     0.19440
F1175       F  0.94164376  0.11954528  0.33465638    -0.13410
F1176       F  0.93616340  0.07851008  0.39628917    -0.15770
F1177       F  0.92110504  0.22794517  0.40492140    -0.15770
F1178       F  0.91152936  0.18663971  0.46592863    -0.13410
C1179       C  0.86600156  0.04259876  0.41430643     0.24600
C1180       C  0.86325276  0.07568815  0.43358204    -0.23510
C1181       C  0.83853956  0.10242658  0.42147479     0.19510
C1182       C  0.81695911  0.09619772  0.39064326     0.24540
C1183       C  0.81907446  0.06278376  0.37217548    -0.23450
C1184       C  0.84366000  0.03601422  0.38418273     0.19440
F1185       F  0.84671281  0.00383324  0.36606781    -0.13410
F1186       F  0.89118351  0.01719927  0.42365657    -0.15770
F1187       F  0.79340348  0.12239591  0.37929582    -0.15770
F1188       F  0.83529449  0.13454210  0.43967392    -0.13410
C1189       C  0.90571824  0.00552940  0.50060853     0.24600
C1190       C  0.87328580  0.02575340  0.50050754    -0.23510
C1191       C  0.83968043  0.00708872  0.49947382     0.19510
C1192       C  0.83903315  0.96852169  0.49892957     0.24540
C1193       C  0.87198319  0.94876028  0.49768376    -0.23450
C1194       C  0.90508604  0.96788950  0.49725506     0.19440
F1195       F  0.93721477  0.94990086  0.49404834    -0.13410
F1196       F  0.93843066  0.02245552  0.50345415    -0.15770
F1197       F  0.80663060  0.95065286  0.49938294    -0.15770
F1198       F  0.80788398  0.02599203  0.49914737    -0.13410
C1199       C  0.19539310  0.05462429  0.56045106     0.24600
C1200       C  0.17125328  0.08494514  0.56009292    -0.23510
C1201       C  0.17737595  0.11114403  0.58793373     0.19510
C1202       C  0.19672524  0.10219993  0.61962970     0.24540
C1203       C  0.21638590  0.06950066  0.62155194    -0.23450
C1204       C  0.21873206  0.04830711  0.58977668     0.19440
F1205       F  0.24456019  0.02220362  0.58590372    -0.13410
F1206       F  0.19877602  0.03148118  0.53201074    -0.15770
F1207       F  0.19840013  0.12685232  0.64724150    -0.15770
F1208       F  0.16984415  0.14677199  0.58274445    -0.13410
C1209       C  0.10491827  0.17254202  0.56441481     0.24600
C1210       C  0.10109672  0.13426641  0.56430416    -0.23510
C1211       C  0.09119995  0.11638908  0.59677864     0.19510
C1212       C  0.08681096  0.13638283  0.62906811     0.24540
C1213       C  0.09121201  0.17449788  0.62887733    -0.23450
C1214       C  0.09917511  0.19249543  0.59622258     0.19440
F1215       F  0.10370675  0.22926882  0.59565620    -0.13410
F1216       F  0.11790627  0.19021947  0.53456772    -0.15770
F1217       F  0.07789274  0.11863764  0.66036726    -0.15770
F1218       F  0.08696880  0.07967521  0.59754560    -0.13410
C1219       C  0.08726465  0.13931397  0.36679673     0.24600
C1220       C  0.08233503  0.17732917  0.36912788    -0.23510
C1221       C  0.08396537  0.19453950  0.40316135     0.19510
C1222       C  0.09248440  0.17457736  0.43423400     0.24540
C1223       C  0.09878377  0.13671345  0.43207357    -0.23450
C1224       C  0.09472417  0.11896294  0.39828827     0.19440
F1225       F  0.09964109  0.08235056  0.39560911    -0.13410
F1226       F  0.08458484  0.12192643  0.33419615    -0.15770
F1227       F  0.09780123  0.19294588  0.46584020    -0.15770
F1228       F  0.07948436  0.23121305  0.40604657    -0.13410
C1229       C  0.22437671  0.06462662  0.40435072     0.24600
C1230       C  0.21649230  0.08381263  0.37207651    -0.23510
C1231       C  0.19556020  0.11579220  0.37522178     0.19510
C1232       C  0.17733396  0.12373912  0.40795991     0.24540
C1233       C  0.17620189  0.09783259  0.43652883    -0.23450
C1234       C  0.20587402  0.07301813  0.43680108     0.19440
F1235       F  0.21501088  0.05418571  0.46719219    -0.13410
F1236       F  0.24854069  0.03655788  0.40439107    -0.15770
F1237       F  0.16428602  0.15795050  0.41254587    -0.15770
F1238       F  0.19323904  0.13984114  0.34720249    -0.13410
C1239       C  0.03112950  0.15383798  0.50886101     0.24600
C1240       C  0.05202424  0.12352257  0.49704202    -0.23510
C1241       C  0.03338512  0.09343272  0.48238139     0.19510
C1242       C  0.99537693  0.09280580  0.48081309     0.24540
C1243       C  0.97442018  0.12150918  0.49542349    -0.23450
C1244       C  0.99269003  0.15256226  0.50850731     0.19440
F1245       F  0.97339885  0.18180794  0.52053336    -0.13410
F1246       F  0.04725327  0.18522405  0.51950509    -0.15770
F1247       F  0.97903602  0.06358266  0.46516054    -0.15770
F1248       F  0.05219281  0.06409594  0.46968748    -0.13410
C1249       C  0.08930474  0.84063630  0.63148875     0.24600
C1250       C  0.08640194  0.80243623  0.62873190    -0.23510
C1251       C  0.08914726  0.78584121  0.59443608     0.19510
C1252       C  0.09590626  0.80677692  0.56343106     0.24540
C1253       C  0.09921006  0.84508434  0.56584870    -0.23450
C1254       C  0.09497481  0.86190622  0.60013946     0.19440
F1255       F  0.09672595  0.89874800  0.60332203    -0.13410
F1256       F  0.08560992  0.85740630  0.66432802    -0.15770
F1257       F  0.10107947  0.78928649  0.53116737    -0.15770
F1258       F  0.08655822  0.74902509  0.59109701    -0.13410
C1259       C  0.19598603  0.86861149  0.61506153     0.24600
C1260       C  0.20817770  0.90311696  0.62610092    -0.23510
C1261       C  0.20326517  0.93242901  0.60228454     0.19510
C1262       C  0.18461855  0.92838075  0.56947009     0.24540
C1263       C  0.16694526  0.89519953  0.56046836    -0.23450
C1264       C  0.17724475  0.86445467  0.58180027     0.19440
F1265       F  0.17101074  0.83007229  0.56966787    -0.13410
F1266       F  0.20314833  0.83878722  0.63578743    -0.15770
F1267       F  0.18693797  0.95684865  0.54644472    -0.15770
F1268       F  0.21590431  0.96587401  0.61117301    -0.13410
C1269       C  0.11121389  0.78716461  0.40030898     0.24600
C1270       C  0.09034712  0.79976519  0.37094044    -0.23510
C1271       C  0.07232813  0.83345347  0.37359498     0.19510
C1272       C  0.07395781  0.85372584  0.40590055     0.24540
C1273       C  0.09609841  0.84193786  0.43474930    -0.23450
C1274       C  0.11478126  0.80854218  0.43172099     0.19440
F1275       F  0.13684047  0.79697353  0.45907806    -0.13410
F1276       F  0.12895273  0.75472775  0.39807867    -0.15770
F1277       F  0.05434540  0.88496136  0.40890237    -0.15770
F1278       F  0.05372581  0.84689572  0.34460575    -0.13410
C1279       C  0.13940715  0.91574273  0.40038226     0.24600
C1280       C  0.15282707  0.89605813  0.43041851    -0.23510
C1281       C  0.18834895  0.88161348  0.42919787     0.19510
C1282       C  0.21078955  0.88822048  0.39902231     0.24540
C1283       C  0.19763074  0.90859645  0.36953067    -0.23450
C1284       C  0.16162642  0.92161624  0.36992146     0.19440
F1285       F  0.14871354  0.94165232  0.34158821    -0.13410
F1286       F  0.10632557  0.93220915  0.40203102    -0.15770
F1287       F  0.24547788  0.87525272  0.39875975    -0.15770
F1288       F  0.20165881  0.86241240  0.45791604    -0.13410
C1289       C  0.12020816  0.97359879  0.52102810     0.24600
C1290       C  0.14020189  0.95317726  0.49490544    -0.23510
C1291       C  0.15696898  0.97335496  0.46667762     0.19510
C1292       C  0.15043367  0.01059731  0.46260380     0.24540
C1293       C  0.13874004  0.03175593  0.49246211    -0.23450
C1294       C  0.12152447  0.01211383  0.52116662     0.19440
F1295       F  0.10544793  0.02979004  0.54936596    -0.13410
F1296       F  0.10210403  0.95654980  0.54847283    -0.15770
F1297       F  0.15492565  0.02489860  0.42893188    -0.15770
F1298       F  0.18292825  0.95878970  0.44489554    -0.13410
C1299       C  0.02840398  0.82326915  0.48817034     0.24600
C1300       C  0.04748875  0.85302702  0.50354971    -0.23510
C1301       C  0.02733977  0.88083581  0.52047300     0.19510
C1302       C  0.98946772  0.88017641  0.52063845     0.24540
C1303       C  0.97003138  0.85205394  0.50313349    -0.23450
C1304       C  0.98989400  0.82281906  0.48797002     0.19440
F1305       F  0.97217783  0.79388112  0.47320525    -0.13410
F1306       F  0.04673859  0.79455520  0.47374363    -0.15770
F1307       F  0.97181375  0.90814254  0.53721639    -0.15770
F1308       F  0.04439287  0.91000602  0.53559311    -0.13410
loop_ 
_geom_bond_atom_site_label_1 
_geom_bond_atom_site_label_2 
_geom_bond_distance 
_geom_bond_site_symmetry_2 
_ccdc_geom_bond_type 
C1            C2   1.421       .  A
C1            C6   1.444       .  A
C1         C1253   1.495       .  S
C2            C3   1.401       .  A
C2         C1300   1.498       .  S
C3            C4   1.408       .  A
C3         C1273   1.482       .  S
C4            C5   1.420       .  A
C4         C1280   1.478       .  S
C5            C6   1.436       .  A
C5         C1290   1.524       .  S
C6         C1263   1.534       .  S
C7            C8   1.418       .  A
C7           C12   1.435       .  A
C7         C1233   1.535       .  S
C8            C9   1.418       .  A
C8         C1293   1.536       .  S
C9           C10   1.440       .  A
C9         C1200   1.532       .  S
C10          C11   1.423       .  A
C10        C1210   1.482       .  S
C11          C12   1.423       .  A
C11        C1240   1.506       .  S
C12        C1223   1.485       .  S
C13          C14   1.413       .  A
C13          C18   1.420       .  A
C13        C1170   1.492       .  S
C14          C15   1.418       .  A
C14        C1243   1.498       .  S
C15          C16   1.421       .  A
C15        C1150   1.486       .  S
C16          C17   1.409       .  A
C16        C1160   1.491       .  S
C17          C18   1.413       .  A
C17        C1190   1.486       .  S
C18        C1180   1.486       .  S
C19          C20   1.414       .  A
C19          C24   1.419       .  A
C19        C1140   1.481       .  S
C20          C21   1.411       .  A
C20        C1303   1.498       .  S
C21          C22   1.418       .  A
C21        C1110   1.486       .  S
C22          C23   1.411       .  A
C22        C1123   1.482       .  S
C23          C24   1.407       .  A
C23        C1193   1.486       .  S
C24        C1130   1.484       .  S
C25          C26   1.437       .  A
C25          C30   1.448       .  A
C25        C1080   1.535       .  S
C26          C27   1.408       .  A
C26        C1100   1.517       .  S
C27          C28   1.418       .  A
C27        C1060   1.475       .  S
C28          C29   1.411       .  A
C28        C1053   1.481       .  S
C29          C30   1.418       .  A
C29        C1090   1.512       .  S
C30        C1070   1.489       .  S
C31          C32   1.416       .  A
C31          C36   1.423       .  A
C31        C1030   1.488       .  S
C32          C33   1.415       .  A
C32        C1103   1.502       .  S
C33          C34   1.425       .  A
C33        C1013   1.493       .  S
C34          C35   1.418       .  A
C34        C1000   1.490       .  S
C35          C36   1.417       .  A
C35        C1043   1.501       .  S
C36        C1020   1.492       .  S
C37          C38   1.413       .  A
C37          C42   1.417       .  A
C37         C970   1.484       .  S
C38          C39   1.416       .  A
C38        C1093   1.496       .  S
C39          C40   1.422       .  A
C39         C950   1.487       .  S
C40          C41   1.410       .  A
C40         C960   1.490       .  S
C41          C42   1.407       .  A
C41         C993   1.491       .  S
C42         C980   1.478       .  S
C43          C44   1.407       .  A
C43          C48   1.418       .  A
C43         C930   1.484       .  S
C44          C45   1.409       .  A
C44        C1040   1.492       .  S
C45          C46   1.418       .  A
C45         C910   1.480       .  S
C46          C47   1.416       .  A
C46         C920   1.488       .  S
C47          C48   1.415       .  A
C47         C990   1.492       .  S
C48         C940   1.485       .  S
C49          C50   1.420       .  A
C49          C54   1.414       .  A
C49         C863   1.486       .  S
C50          C51   1.411       .  A
C50         C850   1.487       .  S
C51          C52   1.418       .  A
C51         C900   1.495       .  S
C52          C53   1.425       .  A
C52         C870   1.493       .  S
C53          C54   1.416       .  A
C53         C880   1.495       .  S
C54         C890   1.501       .  S
C55          C56   1.410       .  A
C55          C60   1.418       .  A
C55         C810   1.477       .  S
C56          C57   1.412       .  A
C56         C893   1.498       .  S
C57          C58   1.419       .  A
C57         C830   1.485       .  S
C58          C59   1.412       .  A
C58         C820   1.482       .  S
C59          C60   1.411       .  A
C59         C840   1.493       .  S
C60         C800   1.484       .  S
C61          C62   1.411       .  A
C61          C66   1.422       .  A
C61         C750   1.489       .  S
C62          C63   1.412       .  A
C62         C843   1.500       .  S
C63          C64   1.420       .  A
C63         C770   1.484       .  S
C64          C65   1.409       .  A
C64         C783   1.478       .  S
C65          C66   1.417       .  A
C65         C790   1.496       .  S
C66         C760   1.485       .  S
C67          C68   1.413       .  A
C67          C72   1.428       .  A
C67         C730   1.485       .  S
C68          C69   1.441       .  A
C68         C903   1.530       .  S
C69          C70   1.447       .  A
C69         C710   1.533       .  S
C70          C71   1.414       .  A
C70         C720   1.486       .  S
C71          C72   1.417       .  A
C71         C793   1.513       .  S
C72         C740   1.495       .  S
C73         C110   1.466       .  S
C73         C600   1.465       .  S
C73          N91   1.344       .  A
N74          N91   1.316       .  A
N74          N96   1.321       .  A
N74        Co111   2.073       .  S
C75         C113   1.453       .  S
C75         N100   1.330       .  A
C75         H120   1.081       .  S
H76         C117   1.082       .  S
C77          C81   1.463       .  S
C77         N101   1.335       .  A
C77         H106   1.078       .  S
Co78         N96   2.096       .  S
Co78         N86   2.087   1_565  S
Co78        N118   2.092       .  S
Co78         N94   2.102   1_565  S
Co78       Cl122   2.496       .  S
N79         C117   1.332       .  A
N79          N86   1.322       .  A
N79         Co80   2.084       .  S
Co80         N83   2.094       .  S
Co80        N100   2.078       .  S
Co80         N87   2.092       .  S
Co80       Cl122   2.418   1_545  S
C81        C1203   1.487       .  S
C81         N119   1.355       .  A
N82          N89   1.318       .  A
N82         N112   1.322       .  A
N82        Co115   2.085       .  S
N83         N101   1.317       .  A
N83         N119   1.327       .  A
N84         C113   1.357       .  A
N84          N94   1.333       .  A
H85         C110   1.082       .  S
N86         N107   1.329       .  A
N87         N105   1.318       .  A
N87          N92   1.326       .  A
C88         C116   1.457       .  S
C88        C1023   1.471       .  S
C88          N92   1.351       .  A
N89         C104   1.347       .  A
N89        Co111   2.093       .  S
C90          C93   1.467       .  S
C90         N118   1.349       .  A
C90         H124   1.081       .  S
C93         C240   1.462       .  S
C93         N114   1.342       .  A
N94         N100   1.321       .  A
N95         C121   1.340       .  A
N95          N97   1.317       .  A
N95        Co111   2.079       .  S
N96         C110   1.350       .  A
N97         N125   1.323       .  A
N97        Co115   2.072       .  S
H98         C121   1.080       .  S
H99         C116   1.081       .  S
N101       Co115   2.071   1_545  S
N102        N114   1.316       .  A
N102        N118   1.320       .  A
N102       Co111   2.074       .  S
C103        C117   1.457       .  S
C103        C126   1.464       .  S
C103        N107   1.351       .  A
C104        C123   1.464       .  S
C104        H108   1.081       .  S
N105        C116   1.340       .  A
N105       Co115   2.079   1_545  S
C109        C121   1.455       .  S
C109        C933   1.465       .  S
C109        N125   1.347       .  A
Co111      Cl122   2.415       .  S
N112        C123   1.351       .  A
C113        C421   1.475       .  S
Co115      Cl122   2.472       .  S
C123       C1260   1.485       .  S
C126        C163   1.469       .  S
C126        N144   1.340       .  A
N127        N144   1.316       .  A
N127        N149   1.321       .  A
N127       Co164   2.070       .  S
C128        C166   1.450       .  S
C128        N153   1.331       .  A
C128        H173   1.082       .  S
H129        C170   1.081       .  S
C130        C134   1.453       .  S
C130        N154   1.340       .  A
C130        H159   1.080       .  S
Co131       N149   2.099       .  S
Co131       N139   2.099   1_455  S
Co131       N171   2.098       .  S
Co131       N147   2.103   1_455  S
Co131      Cl175   2.493       .  S
N132        C170   1.329       .  A
N132        N139   1.321       .  A
N132       Co133   2.071       .  S
Co133       N136   2.092       .  S
Co133       N153   2.075       .  S
Co133       N140   2.081       .  S
Co133      Cl175   2.407   1_655  S
C134       C1153   1.470       .  S
C134        N172   1.351       .  A
N135        N142   1.317       .  A
N135        N165   1.322       .  A
N135       Co168   2.069       .  S
N136        N154   1.317       .  A
N136        N172   1.327       .  A
N137        C166   1.356       .  A
N137        N147   1.332       .  A
H138        C163   1.083       .  S
N139        N160   1.331       .  A
N140        N158   1.318       .  A
N140        N145   1.324       .  A
C141        C169   1.451       .  S
C141        C733   1.463       .  S
C141        N145   1.348       .  A
N142        C157   1.341       .  A
N142       Co164   2.080       .  S
C143        C146   1.467       .  S
C143        N171   1.349       .  A
C143        H177   1.082       .  S
C146        C431   1.463       .  S
C146        N167   1.342       .  A
N147        N153   1.321       .  A
N148        C174   1.343       .  A
N148        N150   1.317       .  A
N148       Co164   2.088       .  S
N149        C163   1.350       .  A
N150        N178   1.324       .  A
N150       Co168   2.079       .  S
H151        C174   1.082       .  S
H152        C169   1.082       .  S
N154       Co168   2.075   1_655  S
N155        N167   1.315       .  A
N155        N171   1.321       .  A
N155       Co164   2.071       .  S
C156        C170   1.451       .  S
C156        C603   1.466       .  S
C156        N160   1.356       .  A
C157        C176   1.455       .  S
C157        H161   1.081       .  S
N158        C169   1.337       .  A
N158       Co168   2.067   1_655  S
C162        C174   1.459       .  S
C162        C873   1.472       .  S
C162        N178   1.348       .  A
Co164      Cl175   2.409       .  S
N165        C176   1.344       .  A
C166        C512   1.469       .  S
Co168      Cl175   2.483       .  S
C176       C1213   1.463       .  S
C179        C216   1.466       .  S
C179        C388   1.462       .  S
C179        N197   1.343       .  A
N180        N197   1.315       .  A
N180        N202   1.320       .  A
N180       Co217   2.071       .  S
C181        C219   1.452       .  S
C181        N206   1.331       .  A
C181        H226   1.083       .  S
H182        C223   1.082       .  S
C183        C187   1.455       .  S
C183        N207   1.340       .  A
C183        H212   1.081       .  S
Co184       N202   2.090       .  S
Co184       N192   2.095   1_455  S
Co184       N224   2.094       .  S
Co184       N200   2.094   1_455  S
Co184      Cl228   2.499       .  S
N185        C223   1.331       .  A
N185        N192   1.321       .  A
N185       Co186   2.077       .  S
Co186       N189   2.094       .  S
Co186       N206   2.077       .  S
Co186       N193   2.086       .  S
Co186      Cl228   2.408   1_655  S
C187       C1143   1.471       .  S
C187        N225   1.351       .  A
N188        N195   1.317       .  A
N188        N218   1.324       .  A
N188       Co221   2.080       .  S
N189        N207   1.318       .  A
N189        N225   1.327       .  A
N190        C219   1.354       .  A
N190        N200   1.330       .  A
H191        C216   1.082       .  S
N192        N213   1.330       .  A
N193        N211   1.318       .  A
N193        N198   1.325       .  A
C194        C222   1.455       .  S
C194        C753   1.470       .  S
C194        N198   1.349       .  A
N195        C210   1.342       .  A
N195       Co217   2.085       .  S
C196        C199   1.467       .  S
C196        N224   1.350       .  A
C196        H230   1.081       .  S
C199        C268   1.465       .  S
C199        N220   1.343       .  A
N200        N206   1.320       .  A
N201        C227   1.340       .  A
N201        N203   1.318       .  A
N201       Co217   2.082       .  S
N202        C216   1.349       .  A
N203        N231   1.325       .  A
N203       Co221   2.081       .  S
H204        C227   1.082       .  S
H205        C222   1.082       .  S
N207       Co221   2.077   1_655  S
N208        N220   1.316       .  A
N208        N224   1.320       .  A
N208       Co217   2.075       .  S
C209        C223   1.453       .  S
C209        C452   1.466       .  S
C209        N213   1.354       .  A
C210        C229   1.457       .  S
C210        H214   1.082       .  S
N211        C222   1.341       .  A
N211       Co221   2.079   1_655  S
C215        C227   1.456       .  S
C215        C803   1.467       .  S
C215        N231   1.348       .  A
Co217      Cl228   2.406       .  S
N218        C229   1.348       .  A
C219        C676   1.466       .  S
Co221      Cl228   2.481       .  S
C229       C1270   1.467       .  S
C232        C269   1.457       .  S
C232        C983   1.468       .  S
C232        N250   1.348       .  A
N233        N250   1.325       .  A
N233        N255   1.318       .  A
N233       Co270   2.085       .  S
C234        C272   1.459       .  S
C234        N259   1.344       .  A
C234        H279   1.081       .  S
H235        C276   1.082       .  S
C236        C240   1.464       .  S
C236        N260   1.348       .  A
C236        H265   1.081       .  S
Co237       N255   2.083   1_556  S
Co237       N245   2.085       .  S
Co237       N277   2.081   1_556  S
Co237       N253   2.088       .  S
Co237      Cl281   2.475       .  S
N238        C276   1.343       .  A
N238        N245   1.318       .  A
N238       Co239   2.086       .  S
Co239       N242   2.082       .  S
Co239       N259   2.091       .  S
Co239       N246   2.076       .  S
Co239      Cl281   2.414       .  S
C240        N278   1.345       .  A
N241        N248   1.319       .  A
N241        N271   1.333       .  A
N241       Co274   2.099       .  S
N242        N260   1.321       .  A
N242        N278   1.317       .  A
N243        C272   1.350       .  A
N243        N253   1.325       .  A
H244        C269   1.081       .  S
N245        N266   1.325       .  A
N246        N264   1.321       .  A
N246        N251   1.316       .  A
C247        C275   1.466       .  S
C247        C586   1.465       .  S
C247        N251   1.343       .  A
N248        C263   1.328       .  A
N248       Co270   2.070       .  S
C249        C252   1.457       .  S
C249        N277   1.341       .  A
C249        H283   1.081       .  S
C252        C813   1.466       .  S
C252        N273   1.348       .  A
N253        N259   1.318       .  A
N254        C280   1.330       .  A
N254        N256   1.320       .  A
N254       Co270   2.075       .  S
N255        C269   1.341       .  A
N256        N284   1.330       .  A
N256       Co274   2.094       .  S
H257        C280   1.081       .  S
H258        C275   1.082       .  S
N260       Co274   2.090   1_556  S
N261        N273   1.325       .  A
N261        N277   1.317       .  A
N261       Co270   2.081       .  S
C262        C276   1.459       .  S
C262        C943   1.471       .  S
C262        N266   1.349       .  A
C263        C282   1.452       .  S
C263        H267   1.080       .  S
N264        C275   1.350       .  A
N264       Co274   2.095   1_556  S
C268        C280   1.452       .  S
C268        N284   1.355       .  A
Co270      Cl281   2.409   1_554  S
N271        C282   1.357       .  A
C272        C860   1.474       .  S
Co274      Cl281   2.500   1_554  S
C282        C374   1.472       .  S
C285        C322   1.452       .  S
C285       C1220   1.467       .  S
C285        N303   1.348       .  A
N286        N303   1.325       .  A
N286        N308   1.318       .  A
N286       Co323   2.082       .  S
C287        C325   1.458       .  S
C287        N312   1.343       .  A
C287        H332   1.080       .  S
H288        C329   1.080       .  S
C289        C293   1.468       .  S
C289        N313   1.350       .  A
C289        H318   1.081       .  S
Co290       N308   2.071       .  S
Co290       N298   2.085   1_455  S
Co290       N330   2.073       .  S
Co290       N306   2.079   1_455  S
Co290      Cl334   2.482       .  S
N291        C329   1.342       .  A
N291        N298   1.317       .  A
N291       Co292   2.086       .  S
Co292       N295   2.071       .  S
Co292       N312   2.089       .  S
Co292       N299   2.069       .  S
Co292      Cl334   2.405   1_655  S
C293        C494   1.463       .  S
C293        N331   1.341       .  A
N294        N301   1.320       .  A
N294        N324   1.331       .  A
N294       Co327   2.100       .  S
N295        N313   1.320       .  A
N295        N331   1.315       .  A
N296        C325   1.348       .  A
N296        N306   1.325       .  A
H297        C322   1.081       .  S
N298        N319   1.326       .  A
N299        N317   1.320       .  A
N299        N304   1.314       .  A
C300        C328   1.466       .  S
C300        C533   1.462       .  S
C300        N304   1.342       .  A
N301        C316   1.332       .  A
N301       Co323   2.075       .  S
C302        C305   1.453       .  S
C302        N330   1.339       .  A
C302        H336   1.081       .  S
C305        C823   1.468       .  S
C305        N326   1.350       .  A
N306        N312   1.317       .  A
N307        C333   1.331       .  A
N307        N309   1.321       .  A
N307       Co323   2.077       .  S
N308        C322   1.337       .  A
N309        N337   1.330       .  A
N309       Co327   2.094       .  S
H310        C333   1.082       .  S
H311        C328   1.081       .  S
N313       Co327   2.095   1_655  S
N314        N326   1.326       .  A
N314        N330   1.318       .  A
N314       Co323   2.092       .  S
C315        C329   1.458       .  S
C315       C1173   1.476       .  S
C315        N319   1.349       .  A
C316        C335   1.451       .  S
C316        H320   1.082       .  S
N317        C328   1.350       .  A
N317       Co327   2.093   1_655  S
C321        C333   1.454       .  S
C321        C411   1.465       .  S
C321        N337   1.354       .  A
Co323      Cl334   2.408       .  S
N324        C335   1.356       .  A
C325        C773   1.471       .  S
Co327      Cl334   2.498       .  S
C335        C346   1.469       .  S
C338        C375   1.460       .  S
C338       C1283   1.463       .  S
C338        N356   1.345       .  A
N339        N356   1.322       .  A
N339        N361   1.319       .  A
N339       Co376   2.077       .  S
C340        C378   1.455       .  S
C340        N365   1.341       .  A
C340        H385   1.079       .  S
H341        C382   1.080       .  S
C342        C346   1.466       .  S
C342        N366   1.349       .  A
C342        H371   1.081       .  S
Co343       N361   2.083       .  S
Co343       N351   2.079   1_565  S
Co343       N383   2.075       .  S
Co343       N359   2.079   1_565  S
Co343      Cl387   2.481       .  S
N344        C382   1.343       .  A
N344        N351   1.317       .  A
N344       Co345   2.092       .  S
Co345       N348   2.081       .  S
Co345       N365   2.082       .  S
Co345       N352   2.077       .  S
Co345      Cl387   2.408   1_545  S
C346        N384   1.346       .  A
N347        N354   1.320       .  A
N347        N377   1.330       .  A
N347       Co380   2.088       .  S
N348        N366   1.322       .  A
N348        N384   1.318       .  A
N349        C378   1.347       .  A
N349        N359   1.324       .  A
H350        C375   1.080       .  S
N351        N372   1.324       .  A
N352        N370   1.319       .  A
N352        N357   1.316       .  A
C353        C381   1.466       .  S
C353        C391   1.461       .  S
C353        N357   1.343       .  A
N354        C369   1.329       .  A
N354       Co376   2.072       .  S
C355        C358   1.454       .  S
C355        N383   1.340       .  A
C355        H389   1.080       .  S
C358        C973   1.467       .  S
C358        N379   1.350       .  A
N359        N365   1.319       .  A
N360        C386   1.327       .  A
N360        N362   1.320       .  A
N360       Co376   2.067       .  S
N361        C375   1.342       .  A
N362        N390   1.333       .  A
N362       Co380   2.104       .  S
H363        C386   1.080       .  S
H364        C381   1.081       .  S
N366       Co380   2.102   1_545  S
N367        N379   1.325       .  A
N367        N383   1.316       .  A
N367       Co376   2.084       .  S
C368        C382   1.468       .  S
C368       C1230   1.489       .  S
C368        N372   1.351       .  A
C369        C388   1.451       .  S
C369        H373   1.081       .  S
N370        C381   1.349       .  A
N370       Co380   2.085   1_545  S
C374        C386   1.451       .  S
C374        N390   1.358       .  A
Co376      Cl387   2.403       .  S
N377        C388   1.354       .  A
C378       C1073   1.470       .  S
Co380      Cl387   2.501       .  S
C391        C428   1.465       .  S
C391        N409   1.344       .  A
N392        N409   1.316       .  A
N392        N414   1.321       .  A
N392       Co429   2.079       .  S
C393        C431   1.453       .  S
C393        N418   1.330       .  A
C393        H438   1.082       .  S
H394        C435   1.081       .  S
C395        C399   1.456       .  S
C395        N419   1.341       .  A
C395        H424   1.080       .  S
Co396       N414   2.089   1_556  S
Co396       N404   2.107       .  S
Co396       N436   2.099   1_556  S
Co396       N412   2.089       .  S
Co396      Cl440   2.501   1_556  S
N397        C435   1.329       .  A
N397        N404   1.320       .  A
N397       Co398   2.071       .  S
Co398       N401   2.094       .  S
Co398       N418   2.076       .  S
Co398       N405   2.087       .  S
Co398      Cl440   2.403   1_556  S
C399       C1033   1.472       .  S
C399        N437   1.351       .  A
N400        N407   1.316       .  A
N400        N430   1.322       .  A
N400       Co433   2.078       .  S
N401        N419   1.318       .  A
N401        N437   1.326       .  A
N402        C431   1.353       .  A
N402        N412   1.329       .  A
H403        C428   1.081       .  S
N404        N425   1.333       .  A
N405        N423   1.317       .  A
N405        N410   1.325       .  A
C406        C434   1.457       .  S
C406        C883   1.474       .  S
C406        N410   1.349       .  A
N407        C422   1.340       .  A
N407       Co429   2.076       .  S
C408        C411   1.469       .  S
C408        N436   1.351       .  A
C408        H442   1.081       .  S
C411        N432   1.341       .  A
N412        N418   1.320       .  A
N413        C439   1.341       .  A
N413        N415   1.318       .  A
N413       Co429   2.086       .  S
N414        C428   1.348       .  A
N415        N443   1.323       .  A
N415       Co433   2.075       .  S
H416        C439   1.080       .  S
H417        C434   1.081       .  S
N419       Co433   2.076   1_556  S
N420        N432   1.315       .  A
N420        N436   1.320       .  A
N420       Co429   2.066       .  S
C421        C435   1.451       .  S
C421        N425   1.358       .  A
C422        C441   1.462       .  S
C422        H426   1.080       .  S
N423        C434   1.342       .  A
N423       Co433   2.079   1_556  S
C427        C439   1.458       .  S
C427        C833   1.467       .  S
C427        N443   1.347       .  A
Co429      Cl440   2.404       .  S
N430        C441   1.351       .  A
Co433      Cl440   2.484       .  S
C441       C1083   1.481       .  S
C444        C481   1.455       .  S
C444       C1183   1.469       .  S
C444        N462   1.350       .  A
N445        N462   1.326       .  A
N445        N467   1.317       .  A
N445       Co482   2.088       .  S
C446        C484   1.458       .  S
C446        N471   1.342       .  A
C446        H491   1.081       .  S
H447        C488   1.081       .  S
C448        C452   1.468       .  S
C448        N472   1.351       .  A
C448        H477   1.082       .  S
Co449       N467   2.073   1_565  S
Co449       N457   2.080       .  S
Co449       N489   2.078   1_565  S
Co449       N465   2.075       .  S
Co449      Cl493   2.482       .  S
N450        C488   1.342       .  A
N450        N457   1.318       .  A
N450       Co451   2.085       .  S
Co451       N454   2.071       .  S
Co451       N471   2.084       .  S
Co451       N458   2.078       .  S
Co451      Cl493   2.409       .  S
C452        N490   1.342       .  A
N453        N460   1.321       .  A
N453        N483   1.329       .  A
N453       Co486   2.089   1_545  S
N454        N472   1.320       .  A
N454        N490   1.316       .  A
N455        C484   1.347       .  A
N455        N465   1.323       .  A
H456        C481   1.081       .  S
N457        N478   1.324       .  A
N458        N476   1.321       .  A
N458        N463   1.316       .  A
C459        C487   1.465       .  S
C459        C656   1.460       .  S
C459        N463   1.344       .  A
N460        C475   1.331       .  A
N460       Co482   2.080       .  S
C461        C464   1.454       .  S
C461        N489   1.341       .  A
C461        H495   1.078       .  S
C464       C1050   1.468       .  S
C464        N485   1.349       .  A
N465        N471   1.317       .  A
N466        C492   1.329       .  A
N466        N468   1.320       .  A
N466       Co482   2.072       .  S
N467        C481   1.339       .  A
N468        N496   1.333       .  A
N468       Co486   2.103   1_545  S
H469        C492   1.081       .  S
H470        C487   1.081       .  S
N472       Co486   2.099       .  S
N473        N485   1.326       .  A
N473        N489   1.318       .  A
N473       Co482   2.088       .  S
C474        C488   1.457       .  S
C474       C1133   1.469       .  S
C474        N478   1.348       .  A
C475        C494   1.455       .  S
C475        H479   1.082       .  S
N476        C487   1.348       .  A
N476       Co486   2.089       .  S
C480        C492   1.452       .  S
C480        C547   1.474       .  S
C480        N496   1.357       .  A
Co482      Cl493   2.408   1_545  S
N483        C494   1.353       .  A
C484        C953   1.468       .  S
Co486      Cl493   2.495       .  S
C497        C534   1.458       .  S
C497       C1063   1.465       .  S
C497        N515   1.347       .  A
N498        N515   1.325       .  A
N498        N520   1.318       .  A
N498       Co535   2.080       .  S
C499        C537   1.462       .  S
C499        N524   1.344       .  A
C499        H544   1.082       .  S
H500        C541   1.081       .  S
C501        C505   1.462       .  S
C501        N525   1.346       .  A
C501        H530   1.082       .  S
Co502       N520   2.082   1_556  S
Co502       N510   2.085       .  S
Co502       N542   2.086   1_556  S
Co502       N518   2.080       .  S
Co502      Cl546   2.473       .  S
N503        C541   1.342       .  A
N503        N510   1.318       .  A
N503       Co504   2.087       .  S
Co504       N507   2.082       .  S
Co504       N524   2.091       .  S
Co504       N511   2.083       .  S
Co504      Cl546   2.417       .  S
C505        C623   1.459       .  S
C505        N543   1.346       .  A
N506        N513   1.320       .  A
N506        N536   1.333       .  A
N506       Co539   2.103       .  S
N507        N525   1.321       .  A
N507        N543   1.316       .  A
N508        C537   1.348       .  A
N508        N518   1.323       .  A
H509        C534   1.082       .  S
N510        N531   1.324       .  A
N511        N529   1.321       .  A
N511        N516   1.318       .  A
C512        C540   1.466       .  S
C512        N516   1.346       .  A
N513        C528   1.329       .  A
N513       Co535   2.071       .  S
C514        C517   1.458       .  S
C514        N542   1.342       .  A
C514        H548   1.082       .  S
C517        C780   1.467       .  S
C517        N538   1.347       .  A
N518        N524   1.319       .  A
N519        C545   1.329       .  A
N519        N521   1.319       .  A
N519       Co535   2.071       .  S
N520        C534   1.340       .  A
N521        N549   1.329       .  A
N521       Co539   2.088       .  S
H522        C545   1.082       .  S
H523        C540   1.081       .  S
N525       Co539   2.083   1_556  S
N526        N538   1.324       .  A
N526        N542   1.318       .  A
N526       Co535   2.077       .  S
C527        C541   1.459       .  S
C527       C1010   1.472       .  S
C527        N531   1.351       .  A
C528        C547   1.451       .  S
C528        H532   1.081       .  S
N529        C540   1.350       .  A
N529       Co539   2.096   1_556  S
C533        C545   1.452       .  S
C533        N549   1.354       .  A
Co535      Cl546   2.411   1_554  S
N536        C547   1.357       .  A
C537        C743   1.472       .  S
Co539      Cl546   2.498   1_554  S
C550        C587   1.455       .  S
C550       C1250   1.472       .  S
C550        N568   1.349       .  A
N551        N568   1.326       .  A
N551        N573   1.317       .  A
N551       Co588   2.087       .  S
C552        C590   1.461       .  S
C552        N577   1.337       .  A
C552        H597   1.079       .  S
H553        C594   1.080       .  S
C554        C558   1.469       .  S
C554        N578   1.350       .  A
C554        H583   1.081       .  S
Co555       N573   2.072       .  S
Co555       N563   2.080   1_455  S
Co555       N595   2.077       .  S
Co555       N571   2.073   1_455  S
Co555      Cl599   2.487       .  S
N556        C594   1.338       .  A
N556        N563   1.318       .  A
N556       Co557   2.075       .  S
Co557       N560   2.067       .  S
Co557       N577   2.072       .  S
Co557       N564   2.073       .  S
Co557      Cl599   2.402   1_655  S
C558        C633   1.463       .  S
C558        N596   1.341       .  A
N559        N566   1.320       .  A
N559        N589   1.331       .  A
N559       Co592   2.098       .  S
N560        N578   1.320       .  A
N560        N596   1.315       .  A
N561        C590   1.350       .  A
N561        N571   1.322       .  A
H562        C587   1.080       .  S
N563        N584   1.324       .  A
N564        N582   1.320       .  A
N564        N569   1.316       .  A
C565        C593   1.467       .  S
C565        C696   1.464       .  S
C565        N569   1.343       .  A
N566        C581   1.329       .  A
N566       Co588   2.071       .  S
C567        C570   1.456       .  S
C567        N595   1.341       .  A
C567        H601   1.080       .  S
C570        C853   1.471       .  S
C570        N591   1.350       .  A
N571        N577   1.316       .  A
N572        C598   1.330       .  A
N572        N574   1.321       .  A
N572       Co588   2.073       .  S
N573        C587   1.339       .  A
N574        N602   1.331       .  A
N574       Co592   2.098       .  S
H575        C598   1.082       .  S
H576        C593   1.081       .  S
N578       Co592   2.097   1_655  S
N579        N591   1.326       .  A
N579        N595   1.318       .  A
N579       Co588   2.090       .  S
C580        C594   1.454       .  S
C580       C1113   1.466       .  S
C580        N584   1.348       .  A
C581        C600   1.450       .  S
C581        H585   1.082       .  S
N582        C593   1.349       .  A
N582       Co592   2.095   1_655  S
C586        C598   1.451       .  S
C586        N602   1.355       .  A
Co588      Cl599   2.402       .  S
N589        C600   1.356       .  A
C590        C713   1.477       .  S
Co592      Cl599   2.497       .  S
C603        C640   1.467       .  S
C603        N621   1.343       .  A
N604        N621   1.316       .  A
N604        N626   1.320       .  A
N604       Co641   2.074       .  S
C605        C643   1.450       .  S
C605        N630   1.329       .  A
C605        H650   1.080       .  S
H606        C647   1.082       .  S
C607        C611   1.453       .  S
C607        N631   1.338       .  A
C607        H636   1.081       .  S
Co608       N626   2.094   1_565  S
Co608       N616   2.088       .  S
Co608       N648   2.092   1_565  S
Co608       N624   2.100       .  S
Co608      Cl652   2.500       .  S
N609        C647   1.331       .  A
N609        N616   1.321       .  A
N609       Co610   2.081       .  S
Co610       N613   2.086       .  S
Co610       N630   2.069       .  S
Co610       N617   2.084       .  S
Co610      Cl652   2.405       .  S
C611       C1120   1.464       .  S
C611        N649   1.350       .  A
N612        N619   1.318       .  A
N612        N642   1.325       .  A
N612       Co645   2.081   1_545  S
N613        N631   1.318       .  A
N613        N649   1.325       .  A
N614        C643   1.357       .  A
N614        N624   1.332       .  A
H615        C640   1.082       .  S
N616        N637   1.329       .  A
N617        N635   1.319       .  A
N617        N622   1.324       .  A
C618        C646   1.453       .  S
C618        C913   1.464       .  S
C618        N622   1.348       .  A
N619        C634   1.343       .  A
N619       Co641   2.091       .  S
C620        C623   1.467       .  S
C620        N648   1.349       .  A
C620        H654   1.082       .  S
C623        N644   1.341       .  A
N624        N630   1.319       .  A
N625        C651   1.343       .  A
N625        N627   1.317       .  A
N625       Co641   2.089       .  S
N626        C640   1.350       .  A
N627        N655   1.325       .  A
N627       Co645   2.080   1_545  S
H628        C651   1.080       .  S
H629        C646   1.080       .  S
N631       Co645   2.070       .  S
N632        N644   1.314       .  A
N632        N648   1.320       .  A
N632       Co641   2.070       .  S
C633        C647   1.455       .  S
C633        N637   1.352       .  A
C634        C653   1.459       .  S
C634        H638   1.080       .  S
N635        C646   1.340       .  A
N635       Co645   2.076       .  S
C639        C651   1.457       .  S
C639       C1003   1.475       .  S
C639        N655   1.349       .  A
Co641      Cl652   2.403   1_545  S
N642        C653   1.348       .  A
C643        C686   1.471       .  S
Co645      Cl652   2.483       .  S
C653       C1163   1.475       .  S
C656        C693   1.466       .  S
C656        N674   1.342       .  A
N657        N674   1.315       .  A
N657        N679   1.320       .  A
N657       Co694   2.073       .  S
C658        C696   1.452       .  S
C658        N683   1.330       .  A
C658        H703   1.082       .  S
H659        C700   1.080       .  S
C660        C664   1.454       .  S
C660        N684   1.339       .  A
C660        H689   1.081       .  S
Co661       N679   2.089   1_556  S
Co661       N669   2.100       .  S
Co661       N701   2.099   1_556  S
Co661       N677   2.091       .  S
Co661      Cl705   2.494   1_556  S
N662        C700   1.329       .  A
N662        N669   1.321       .  A
N662       Co663   2.075       .  S
Co663       N666   2.096       .  S
Co663       N683   2.074       .  S
Co663       N670   2.086       .  S
Co663      Cl705   2.405   1_556  S
C664        C923   1.470       .  S
C664        N702   1.352       .  A
N665        N672   1.318       .  A
N665        N695   1.325       .  A
N665       Co698   2.079       .  S
N666        N684   1.317       .  A
N666        N702   1.327       .  A
N667        C696   1.354       .  A
N667        N677   1.330       .  A
H668        C693   1.082       .  S
N669        N690   1.332       .  A
N670        N688   1.318       .  A
N670        N675   1.325       .  A
C671        C699   1.452       .  S
C671        C723   1.468       .  S
C671        N675   1.349       .  A
N672        C687   1.340       .  A
N672       Co694   2.081       .  S
C673        C676   1.467       .  S
C673        N701   1.350       .  A
C673        H707   1.082       .  S
C676        N697   1.343       .  A
N677        N683   1.320       .  A
N678        C704   1.344       .  A
N678        N680   1.317       .  A
N678       Co694   2.088       .  S
N679        C693   1.349       .  A
N680        N708   1.323       .  A
N680       Co698   2.075       .  S
H681        C704   1.080       .  S
H682        C699   1.080       .  S
N684       Co698   2.070   1_556  S
N685        N697   1.316       .  A
N685        N701   1.321       .  A
N685       Co694   2.075       .  S
C686        C700   1.453       .  S
C686        N690   1.356       .  A
C687        C706   1.455       .  S
C687        H691   1.080       .  S
N688        C699   1.339       .  A
N688       Co698   2.073   1_556  S
C692        C704   1.459       .  S
C692        C763   1.469       .  S
C692        N708   1.346       .  A
Co694      Cl705   2.408       .  S
N695        C706   1.348       .  A
Co698      Cl705   2.484       .  S
C706        C963   1.470       .  S
C709        C710   1.404       .  A
C709        C714   1.396       .  A
C709        F716   1.340       .  S
C710        C711   1.415       .  A
C711        C712   1.396       .  A
C711        F718   1.350       .  S
C712        C713   1.403       .  A
C712        F717   1.356       .  S
C713        C714   1.403       .  A
C714        F715   1.358       .  S
C719        C720   1.411       .  A
C719        C724   1.393       .  A
C719        F726   1.358       .  S
C720        C721   1.405       .  A
C721        C722   1.403       .  A
C721        F728   1.357       .  S
C722        C723   1.408       .  A
C722        F727   1.358       .  S
C723        C724   1.399       .  A
C724        F725   1.358       .  S
C729        C730   1.407       .  A
C729        C734   1.399       .  A
C729        F736   1.357       .  S
C730        C731   1.408       .  A
C731        C732   1.391       .  A
C731        F738   1.357       .  S
C732        C733   1.398       .  A
C732        F737   1.358       .  S
C733        C734   1.405       .  A
C734        F735   1.358       .  S
C739        C740   1.414       .  A
C739        C744   1.400       .  A
C739        F746   1.358       .  S
C740        C741   1.407       .  A
C741        C742   1.397       .  A
C741        F748   1.355       .  S
C742        C743   1.402       .  A
C742        F747   1.353       .  S
C743        C744   1.399       .  A
C744        F745   1.358       .  S
C749        C750   1.408       .  A
C749        C754   1.396       .  A
C749        F756   1.357       .  S
C750        C751   1.406       .  A
C751        C752   1.401       .  A
C751        F758   1.357       .  S
C752        C753   1.406       .  A
C752        F757   1.358       .  S
C753        C754   1.400       .  A
C754        F755   1.358       .  S
C759        C760   1.406       .  A
C759        C764   1.400       .  A
C759        F766   1.356       .  S
C760        C761   1.408       .  A
C761        C762   1.398       .  A
C761        F768   1.358       .  S
C762        C763   1.399       .  A
C762        F767   1.358       .  S
C763        C764   1.406       .  A
C764        F765   1.358       .  S
C769        C770   1.407       .  A
C769        C774   1.399       .  A
C769        F776   1.357       .  S
C770        C771   1.404       .  A
C771        C772   1.401       .  A
C771        F778   1.356       .  S
C772        C773   1.406       .  A
C772        F777   1.358       .  S
C773        C774   1.400       .  A
C774        F775   1.358       .  S
C779        C780   1.401       .  A
C779        C784   1.398       .  A
C779        F786   1.358       .  S
C780        C781   1.405       .  A
C781        C782   1.399       .  A
C781        F788   1.357       .  S
C782        C783   1.402       .  A
C782        F787   1.357       .  S
C783        C784   1.405       .  A
C784        F785   1.358       .  S
C789        C790   1.396       .  A
C789        C794   1.385   1_554  A
C789        F796   1.351       .  S
C790        C791   1.410       .  A
C791        C792   1.422   1_554  A
C791        F798   1.356       .  S
C792        C793   1.419       .  A
C792        F797   1.354       .  S
C793        C794   1.402       .  A
C794        F795   1.345       .  S
C799        C800   1.406       .  A
C799        C804   1.399       .  A
C799        F806   1.358       .  S
C800        C801   1.405       .  A
C801        C802   1.397       .  A
C801        F808   1.354       .  S
C802        C803   1.404       .  A
C802        F807   1.358       .  S
C803        C804   1.401       .  A
C804        F805   1.358       .  S
C809        C810   1.402       .  A
C809        C814   1.398       .  A
C809        F816   1.357       .  S
C810        C811   1.406       .  A
C811        C812   1.399       .  A
C811        F818   1.358       .  S
C812        C813   1.401       .  A
C812        F817   1.358       .  S
C813        C814   1.403       .  A
C814        F815   1.356       .  S
C819        C820   1.405       .  A
C819        C824   1.398       .  A
C819        F826   1.358       .  S
C820        C821   1.407       .  A
C821        C822   1.398       .  A
C821        F828   1.358       .  S
C822        C823   1.400       .  A
C822        F827   1.358       .  S
C823        C824   1.404       .  A
C824        F825   1.356       .  S
C829        C830   1.407       .  A
C829        C834   1.397       .  A
C829        F836   1.358       .  S
C830        C831   1.406       .  A
C831        C832   1.397       .  A
C831        F838   1.356       .  S
C832        C833   1.404       .  A
C832        F837   1.358       .  S
C833        C834   1.401       .  A
C834        F835   1.358       .  S
C839        C840   1.403       .  A
C839        C844   1.387   1_455  A
C839        F846   1.359       .  S
C840        C841   1.410       .  A
C841        C842   1.415   1_455  A
C841        F848   1.357       .  S
C842        C843   1.412       .  A
C842        F847   1.355       .  S
C843        C844   1.406       .  A
C844        F845   1.353       .  S
C849        C850   1.408       .  A
C849        C854   1.398       .  A
C849        F856   1.358       .  S
C850        C851   1.405       .  A
C851        C852   1.402       .  A
C851        F858   1.357       .  S
C852        C853   1.406       .  A
C852        F857   1.358       .  S
C853        C854   1.401       .  A
C854        F855   1.358       .  S
C859        C860   1.403       .  A
C859        C864   1.401       .  A
C859        F866   1.353       .  S
C860        C861   1.401       .  A
C861        C862   1.401       .  A
C861        F868   1.358       .  S
C862        C863   1.409       .  A
C862        F867   1.358       .  S
C863        C864   1.403       .  A
C864        F865   1.357       .  S
C869        C870   1.409       .  A
C869        C874   1.399       .  A
C869        F876   1.355       .  S
C870        C871   1.410       .  A
C871        C872   1.400       .  A
C871        F878   1.358       .  S
C872        C873   1.401       .  A
C872        F877   1.358       .  S
C873        C874   1.404       .  A
C874        F875   1.358       .  S
C879        C880   1.408       .  A
C879        C884   1.402       .  A
C879        F886   1.356       .  S
C880        C881   1.410       .  A
C881        C882   1.398       .  A
C881        F888   1.358       .  S
C882        C883   1.401       .  A
C882        F887   1.358       .  S
C883        C884   1.406       .  A
C884        F885   1.358       .  S
C889        C890   1.412       .  A
C889        C894   1.415   1_556  A
C889        F896   1.357       .  S
C890        C891   1.406       .  A
C891        C892   1.389   1_556  A
C891        F898   1.355       .  S
C892        C893   1.405       .  A
C892        F897   1.358       .  S
C893        C894   1.412       .  A
C894        F895   1.356       .  S
C899        C900   1.400       .  A
C899        C904   1.393   1_455  A
C899        F906   1.354       .  S
C900        C901   1.404       .  A
C901        C902   1.416   1_455  A
C901        F908   1.357       .  S
C902        C903   1.427       .  A
C902        F907   1.353       .  S
C903        C904   1.404       .  A
C904        F905   1.345       .  S
C909        C910   1.406       .  A
C909        C914   1.394       .  A
C909        F916   1.356       .  S
C910        C911   1.404       .  A
C911        C912   1.400       .  A
C911        F918   1.357       .  S
C912        C913   1.405       .  A
C912        F917   1.358       .  S
C913        C914   1.398       .  A
C914        F915   1.358       .  S
C919        C920   1.407       .  A
C919        C924   1.398       .  A
C919        F926   1.354       .  S
C920        C921   1.408       .  A
C921        C922   1.401       .  A
C921        F928   1.358       .  S
C922        C923   1.401       .  A
C922        F927   1.357       .  S
C923        C924   1.404       .  A
C924        F925   1.358       .  S
C929        C930   1.406       .  A
C929        C934   1.395       .  A
C929        F936   1.356       .  S
C930        C931   1.405       .  A
C931        C932   1.398       .  A
C931        F938   1.356       .  S
C932        C933   1.405       .  A
C932        F937   1.358       .  S
C933        C934   1.399       .  A
C934        F935   1.358       .  S
C939        C940   1.408       .  A
C939        C944   1.400       .  A
C939        F946   1.358       .  S
C940        C941   1.405       .  A
C941        C942   1.399       .  A
C941        F948   1.357       .  S
C942        C943   1.403       .  A
C942        F947   1.353       .  S
C943        C944   1.401       .  A
C944        F945   1.357       .  S
C949        C950   1.407       .  A
C949        C954   1.398       .  A
C949        F956   1.357       .  S
C950        C951   1.409       .  A
C951        C952   1.398       .  A
C951        F958   1.358       .  S
C952        C953   1.400       .  A
C952        F957   1.358       .  S
C953        C954   1.404       .  A
C954        F955   1.356       .  S
C959        C960   1.409       .  A
C959        C964   1.396       .  A
C959        F966   1.358       .  S
C960        C961   1.406       .  A
C961        C962   1.399       .  A
C961        F968   1.356       .  S
C962        C963   1.406       .  A
C962        F967   1.358       .  S
C963        C964   1.400       .  A
C964        F965   1.358       .  S
C969        C970   1.406       .  A
C969        C974   1.398       .  A
C969        F976   1.354       .  S
C970        C971   1.406       .  A
C971        C972   1.399       .  A
C971        F978   1.358       .  S
C972        C973   1.401       .  A
C972        F977   1.358       .  S
C973        C974   1.403       .  A
C974        F975   1.358       .  S
C979        C980   1.403       .  A
C979        C984   1.399       .  A
C979        F986   1.357       .  S
C980        C981   1.406       .  A
C981        C982   1.399       .  A
C981        F988   1.358       .  S
C982        C983   1.401       .  A
C982        F987   1.357       .  S
C983        C984   1.404       .  A
C984        F985   1.356       .  S
C989        C990   1.410       .  A
C989        C994   1.413   1_556  A
C989        F996   1.357       .  S
C990        C991   1.405       .  A
C991        C992   1.388   1_556  A
C991        F998   1.357       .  S
C992        C993   1.403       .  A
C992        F997   1.358       .  S
C993        C994   1.410       .  A
C994        F995   1.356       .  S
C999       C1000   1.408       .  A
C999       C1004   1.399       .  A
C999       F1006   1.358       .  S
C1000      C1001   1.406       .  A
C1001      C1002   1.402       .  A
C1001      F1008   1.357       .  S
C1002      C1003   1.407       .  A
C1002      F1007   1.358       .  S
C1003      C1004   1.401       .  A
C1004      F1005   1.358       .  S
C1009      C1010   1.400       .  A
C1009      C1014   1.396       .  A
C1009      F1016   1.351       .  S
C1010      C1011   1.401       .  A
C1011      C1012   1.402       .  A
C1011      F1018   1.358       .  S
C1012      C1013   1.412       .  A
C1012      F1017   1.357       .  S
C1013      C1014   1.406       .  A
C1014      F1015   1.355       .  S
C1019      C1020   1.409       .  A
C1019      C1024   1.397       .  A
C1019      F1026   1.353       .  S
C1020      C1021   1.409       .  A
C1021      C1022   1.402       .  A
C1021      F1028   1.358       .  S
C1022      C1023   1.402       .  A
C1022      F1027   1.358       .  S
C1023      C1024   1.402       .  A
C1024      F1025   1.358       .  S
C1029      C1030   1.406       .  A
C1029      C1034   1.402       .  A
C1029      F1036   1.356       .  S
C1030      C1031   1.408       .  A
C1031      C1032   1.398       .  A
C1031      F1038   1.358       .  S
C1032      C1033   1.401       .  A
C1032      F1037   1.358       .  S
C1033      C1034   1.406       .  A
C1034      F1035   1.358       .  S
C1039      C1040   1.409       .  A
C1039      C1044   1.415   1_565  A
C1039      F1046   1.356       .  S
C1040      C1041   1.401       .  A
C1041      C1042   1.385   1_565  A
C1041      F1048   1.356       .  S
C1042      C1043   1.403       .  A
C1042      F1047   1.349       .  S
C1043      C1044   1.413       .  A
C1044      F1045   1.354       .  S
C1049      C1050   1.406       .  A
C1049      C1054   1.401       .  A
C1049      F1056   1.358       .  S
C1050      C1051   1.399       .  A
C1051      C1052   1.396       .  A
C1051      F1058   1.358       .  S
C1052      C1053   1.406       .  A
C1052      F1057   1.358       .  S
C1053      C1054   1.404       .  A
C1054      F1055   1.356       .  S
C1059      C1060   1.405       .  A
C1059      C1064   1.398       .  A
C1059      F1066   1.358       .  S
C1060      C1061   1.402       .  A
C1061      C1062   1.398       .  A
C1061      F1068   1.357       .  S
C1062      C1063   1.403       .  A
C1062      F1067   1.357       .  S
C1063      C1064   1.400       .  A
C1064      F1065   1.357       .  S
C1069      C1070   1.405       .  A
C1069      C1074   1.401       .  A
C1069      F1076   1.357       .  S
C1070      C1071   1.412       .  A
C1071      C1072   1.393       .  A
C1071      F1078   1.357       .  S
C1072      C1073   1.399       .  A
C1072      F1077   1.358       .  S
C1073      C1074   1.409       .  A
C1074      F1075   1.357       .  S
C1079      C1080   1.417       .  A
C1079      C1084   1.401       .  A
C1079      F1086   1.353       .  S
C1080      C1081   1.410       .  A
C1081      C1082   1.394       .  A
C1081      F1088   1.340       .  S
C1082      C1083   1.401       .  A
C1082      F1087   1.358       .  S
C1083      C1084   1.404       .  A
C1084      F1085   1.357       .  S
C1089      C1090   1.416       .  A
C1089      C1094   1.415   1_545  A
C1089      F1096   1.354       .  S
C1090      C1091   1.408       .  A
C1091      C1092   1.389   1_545  A
C1091      F1098   1.353       .  S
C1092      C1093   1.403       .  A
C1092      F1097   1.358       .  S
C1093      C1094   1.409       .  A
C1094      F1095   1.357       .  S
C1099      C1100   1.400       .  A
C1099      C1104   1.391   1_554  A
C1099      F1106   1.348       .  S
C1100      C1101   1.421       .  A
C1101      C1102   1.418   1_554  A
C1101      F1108   1.357       .  S
C1102      C1103   1.408       .  A
C1102      F1107   1.356       .  S
C1103      C1104   1.402       .  A
C1104      F1105   1.347       .  S
C1109      C1110   1.406       .  A
C1109      C1114   1.396       .  A
C1109      F1116   1.356       .  S
C1110      C1111   1.408       .  A
C1111      C1112   1.397       .  A
C1111      F1118   1.358       .  S
C1112      C1113   1.400       .  A
C1112      F1117   1.358       .  S
C1113      C1114   1.405       .  A
C1114      F1115   1.358       .  S
C1119      C1120   1.400       .  A
C1119      C1124   1.398       .  A
C1119      F1126   1.358       .  S
C1120      C1121   1.403       .  A
C1121      C1122   1.395       .  A
C1121      F1128   1.358       .  S
C1122      C1123   1.407       .  A
C1122      F1127   1.356       .  S
C1123      C1124   1.407       .  A
C1124      F1125   1.358       .  S
C1129      C1130   1.407       .  A
C1129      C1134   1.397       .  A
C1129      F1136   1.358       .  S
C1130      C1131   1.405       .  A
C1131      C1132   1.400       .  A
C1131      F1138   1.356       .  S
C1132      C1133   1.406       .  A
C1132      F1137   1.358       .  S
C1133      C1134   1.400       .  A
C1134      F1135   1.358       .  S
C1139      C1140   1.408       .  A
C1139      C1144   1.400       .  A
C1139      F1146   1.358       .  S
C1140      C1141   1.403       .  A
C1141      C1142   1.399       .  A
C1141      F1148   1.357       .  S
C1142      C1143   1.404       .  A
C1142      F1147   1.353       .  S
C1143      C1144   1.400       .  A
C1144      F1145   1.357       .  S
C1149      C1150   1.406       .  A
C1149      C1154   1.401       .  A
C1149      F1156   1.358       .  S
C1150      C1151   1.408       .  A
C1151      C1152   1.398       .  A
C1151      F1158   1.358       .  S
C1152      C1153   1.400       .  A
C1152      F1157   1.358       .  S
C1153      C1154   1.406       .  A
C1154      F1155   1.358       .  S
C1159      C1160   1.406       .  A
C1159      C1164   1.402       .  A
C1159      F1166   1.357       .  S
C1160      C1161   1.408       .  A
C1161      C1162   1.399       .  A
C1161      F1168   1.358       .  S
C1162      C1163   1.401       .  A
C1162      F1167   1.358       .  S
C1163      C1164   1.407       .  A
C1164      F1165   1.358       .  S
C1169      C1170   1.406       .  A
C1169      C1174   1.401       .  A
C1169      F1176   1.356       .  S
C1170      C1171   1.409       .  A
C1171      C1172   1.400       .  A
C1171      F1178   1.358       .  S
C1172      C1173   1.402       .  A
C1172      F1177   1.358       .  S
C1173      C1174   1.407       .  A
C1174      F1175   1.358       .  S
C1179      C1180   1.407       .  A
C1179      C1184   1.397       .  A
C1179      F1186   1.356       .  S
C1180      C1181   1.407       .  A
C1181      C1182   1.400       .  A
C1181      F1188   1.358       .  S
C1182      C1183   1.401       .  A
C1182      F1187   1.358       .  S
C1183      C1184   1.404       .  A
C1184      F1185   1.358       .  S
C1189      C1190   1.401       .  A
C1189      C1194   1.385   1_545  A
C1189      F1196   1.354       .  S
C1190      C1191   1.409       .  A
C1191      C1192   1.414   1_545  A
C1191      F1198   1.356       .  S
C1192      C1193   1.409       .  A
C1192      F1197   1.356       .  S
C1193      C1194   1.401       .  A
C1194      F1195   1.355       .  S
C1199      C1200   1.421       .  A
C1199      C1204   1.395       .  A
C1199      F1206   1.349       .  S
C1200      C1201   1.419       .  A
C1201      C1202   1.401       .  A
C1201      F1208   1.348       .  S
C1202      C1203   1.401       .  A
C1202      F1207   1.358       .  S
C1203      C1204   1.402       .  A
C1204      F1205   1.353       .  S
C1209      C1210   1.410       .  A
C1209      C1214   1.391       .  A
C1209      F1216   1.356       .  S
C1210      C1211   1.405       .  A
C1211      C1212   1.401       .  A
C1211      F1218   1.355       .  S
C1212      C1213   1.406       .  A
C1212      F1217   1.358       .  S
C1213      C1214   1.397       .  A
C1214      F1215   1.358       .  S
C1219      C1220   1.408       .  A
C1219      C1224   1.402       .  A
C1219      F1226   1.358       .  S
C1220      C1221   1.399       .  A
C1221      C1222   1.390       .  A
C1221      F1228   1.358       .  S
C1222      C1223   1.409       .  A
C1222      F1227   1.354       .  S
C1223      C1224   1.407       .  A
C1224      F1225   1.358       .  S
C1229      C1230   1.407       .  A
C1229      C1234   1.401       .  A
C1229      F1236   1.358       .  S
C1230      C1231   1.406       .  A
C1231      C1232   1.402       .  A
C1231      F1238   1.356       .  S
C1232      C1233   1.414       .  A
C1232      F1237   1.352       .  S
C1233      C1234   1.418       .  A
C1234      F1235   1.353       .  S
C1239      C1240   1.417       .  A
C1239      C1244   1.410   1_455  A
C1239      F1246   1.351       .  S
C1240      C1241   1.405       .  A
C1241      C1242   1.395   1_455  A
C1241      F1248   1.359       .  S
C1242      C1243   1.408       .  A
C1242      F1247   1.355       .  S
C1243      C1244   1.405       .  A
C1244      F1245   1.357       .  S
C1249      C1250   1.408       .  A
C1249      C1254   1.403       .  A
C1249      F1256   1.358       .  S
C1250      C1251   1.399       .  A
C1251      C1252   1.393       .  A
C1251      F1258   1.358       .  S
C1252      C1253   1.412       .  A
C1252      F1257   1.358       .  S
C1253      C1254   1.408       .  A
C1254      F1255   1.357       .  S
C1259      C1260   1.401       .  A
C1259      C1264   1.409       .  A
C1259      F1266   1.357       .  S
C1260      C1261   1.396       .  A
C1261      C1262   1.393       .  A
C1261      F1268   1.350       .  S
C1262      C1263   1.417       .  A
C1262      F1267   1.345       .  S
C1263      C1264   1.423       .  A
C1264      F1265   1.356       .  S
C1269      C1270   1.400       .  A
C1269      C1274   1.399       .  A
C1269      F1276   1.358       .  S
C1270      C1271   1.404       .  A
C1271      C1272   1.399       .  A
C1271      F1278   1.357       .  S
C1272      C1273   1.403       .  A
C1272      F1277   1.356       .  S
C1273      C1274   1.407       .  A
C1274      F1275   1.358       .  S
C1279      C1280   1.406       .  A
C1279      C1284   1.397       .  A
C1279      F1286   1.356       .  S
C1280      C1281   1.406       .  A
C1281      C1282   1.398       .  A
C1281      F1288   1.358       .  S
C1282      C1283   1.401       .  A
C1282      F1287   1.358       .  S
C1283      C1284   1.404       .  A
C1284      F1285   1.358       .  S
C1289      C1290   1.418       .  A
C1289      C1294   1.412   1_565  A
C1289      F1296   1.356       .  S
C1290      C1291   1.411       .  A
C1291      C1292   1.394   1_565  A
C1291      F1298   1.350       .  S
C1292      C1293   1.407       .  A
C1292      F1297   1.350       .  S
C1293      C1294   1.421       .  A
C1294      F1295   1.353       .  S
C1299      C1300   1.414       .  A
C1299      C1304   1.412   1_455  A
C1299      F1306   1.355       .  S
C1300      C1301   1.402       .  A
C1301      C1302   1.388   1_455  A
C1301      F1308   1.357       .  S
C1302      C1303   1.408       .  A
C1302      F1307   1.355       .  S
C1303      C1304   1.409       .  A
C1304      F1305   1.357       .  S
