geometry optimzed in LAMMPS
_audit_creation_date              2020-11-30 
_audit_creation_method            'lammps2cif' 
_symmetry_space_group_name_H-M    'P1' 
_symmetry_Int_Tables_number       1 
_symmetry_cell_setting            triclinic 
loop_ 
_symmetry_equiv_pos_as_xyz 
  x,y,z 
_cell_length_a                    35.64833495 
_cell_length_b                    34.47655115742785 
_cell_length_c                    32.86573917621494 
_cell_angle_alpha                 89.92120994058094 
_cell_angle_beta                  90.16302158682699 
_cell_angle_gamma                 90.02295693366625 
loop_ 
_atom_site_label 
_atom_site_type_symbol 
_atom_site_fract_x 
_atom_site_fract_y 
_atom_site_fract_z 
_atom_site_charge 
O1          O  0.25432327  0.18721810  0.38429088    -0.87000
O2          O  0.25689438  0.18633190  0.61495506    -0.87200
O3          O  0.31829548  0.13821311  0.49731219    -0.88900
O4          O  0.19334365  0.13879605  0.49931637    -0.87600
O5          O  0.14869933  0.18700092  0.49972885    -0.87200
O6          O  0.36372713  0.18566582  0.49685594    -0.88600
O7          O  0.25817984  0.13814941  0.56679570    -0.87100
O8          O  0.25733848  0.13872728  0.43219282    -0.86600
Zr9        Zr  0.25611565  0.16929729  0.49934328     2.84300
O10         O  0.21909459  0.20897740  0.54096498    -1.08600
O11         O  0.29315339  0.20947296  0.45812689    -1.09300
C12         C  0.25595262  0.15120220  0.39504561     1.06100
C13         C  0.25761537  0.15042399  0.60407772     1.06000
C14         C  0.35280600  0.15002836  0.49663114     1.09000
C15         C  0.15895668  0.15114177  0.49943028     1.06800
H16         H  0.31056846  0.19235882  0.55656904     0.32300
O17         O  0.29482291  0.20855244  0.53973949    -1.29600
H18         H  0.20209229  0.19396555  0.44189457     0.32000
O19         O  0.21803176  0.20967522  0.45898941    -1.31200
O20         O  0.25804616  0.31069167  0.61514221    -0.87000
O21         O  0.25782633  0.31335396  0.38541727    -0.88500
O22         O  0.36224017  0.24549168  0.56579842    -0.87100
O23         O  0.15249300  0.24573034  0.56801022    -0.87100
O24         O  0.14982768  0.24914857  0.43480126    -0.86900
O25         O  0.35969538  0.24441424  0.43029180    -0.86700
O26         O  0.32002204  0.35813132  0.49955732    -0.87000
O27         O  0.19504849  0.35940239  0.50057930    -0.86500
O28         O  0.36470690  0.30996021  0.49793294    -0.87600
O29         O  0.14976220  0.31178206  0.50181850    -0.86700
O30         O  0.31749257  0.24859624  0.61575050    -0.87100
O31         O  0.31371463  0.24794145  0.38137690    -0.86800
O32         O  0.19477568  0.25239523  0.38497570    -0.86500
O33         O  0.19893258  0.24912604  0.61643261    -0.86900
O34         O  0.25968155  0.35897063  0.56714371    -0.87200
O35         O  0.25857208  0.36054868  0.43450883    -0.88500
Zr36       Zr  0.25787494  0.24856608  0.58068510     2.83100
Zr37       Zr  0.25527859  0.24991720  0.41829123     2.83500
Zr38       Zr  0.33217543  0.24799889  0.49850814     2.84100
Zr39       Zr  0.18117660  0.24907055  0.50074629     2.83400
Zr40       Zr  0.25737993  0.32804518  0.50030400     2.84200
O41         O  0.21818158  0.28931339  0.45962143    -1.09100
O42         O  0.29585970  0.28803261  0.54027860    -1.08600
C43         C  0.25899425  0.34664422  0.60434121     1.06100
C44         C  0.25886367  0.34913313  0.39707103     1.08700
C45         C  0.35165415  0.24629444  0.60349316     1.06200
C46         C  0.16444359  0.24706757  0.60513303     1.06600
C47         C  0.16059283  0.25083662  0.39736322     1.06200
C48         C  0.34810407  0.24486867  0.39289834     1.05700
C49         C  0.35433275  0.34577906  0.49855591     1.06200
C50         C  0.16050739  0.34751826  0.50134252     1.05700
H51         H  0.31020223  0.30415830  0.44132016     0.32300
O52         O  0.29441212  0.28844147  0.45853932    -1.30200
H53         H  0.20409014  0.30446505  0.55866194     0.32400
O54         O  0.21942559  0.28858159  0.54126825    -1.31600
N55         N  0.00567964  0.05841485  0.49464800    -0.37100
N56         N  0.06436505  0.49911304  0.50064635    -0.57700
N57         N  0.00669756  0.43874399  0.50321675    -0.37100
N58         N  0.44789333  0.49809165  0.49704929    -0.57700
C59         C  0.03614348  0.08158067  0.49968602     0.26400
C60         C  0.47466293  0.08098735  0.49810546     0.26400
C61         C  0.03770576  0.41606344  0.50029348     0.26400
C62         C  0.47622533  0.41559126  0.49837536     0.26400
C63         C  0.08672422  0.03079065  0.49921017     0.35100
C64         C  0.08731332  0.46789224  0.50211564     0.35100
C65         C  0.42496786  0.02928291  0.49537755     0.35100
C66         C  0.42555660  0.46642074  0.49798445     0.35100
C67         C  0.02427305  0.11948595  0.50547976    -0.22400
C68         C  0.48565603  0.11912399  0.50446168    -0.22400
C69         C  0.02666823  0.37784740  0.49461879    -0.22400
C70         C  0.48805413  0.37755440  0.49335554    -0.22400
C71         C  0.12408408  0.01955705  0.49980051    -0.23500
C72         C  0.12445444  0.47989116  0.50173678    -0.23500
C73         C  0.38779454  0.01730813  0.49516773    -0.23500
C74         C  0.38816288  0.47761637  0.49689154    -0.23500
C75         C  0.07439603  0.06983400  0.49895619    -0.18800
C76         C  0.43668071  0.06850273  0.49579466    -0.18800
C77         C  0.43800959  0.42744211  0.49846854    -0.18800
C78         C  0.07572306  0.42859367  0.50213571    -0.18800
H79         H  0.04162899  0.14483019  0.51036178     0.14100
H80         H  0.46771129  0.14414755  0.50843104     0.14100
H81         H  0.04458380  0.35273729  0.49114424     0.14100
H82         H  0.47068315  0.35216671  0.48876622     0.14100
H83         H  0.14865765  0.03798800  0.49918859     0.12400
H84         H  0.14936274  0.46196320  0.50239161     0.12400
H85         H  0.36289800  0.03525825  0.49428783     0.12400
H86         H  0.36359627  0.45915479  0.49710214     0.12400
H87         H  0.00610981  0.02950963  0.48620310     0.25600
H88         H  0.00623740  0.46782439  0.51091671     0.25600
O89         O  0.49142924  0.43622601  0.88382526    -0.87000
O90         O  0.48958428  0.43377990  0.11414458    -0.87200
O91         O  0.05339033  0.38659561  0.99926992    -0.88900
O92         O  0.42863992  0.38716567  0.99851395    -0.87600
O93         O  0.38389867  0.43523813  0.00024238    -0.91200
O94         O  0.09869637  0.43415214  0.00143912    -0.88600
O95         O  0.48938705  0.38609150  0.06560219    -0.87100
O96         O  0.49087562  0.38782725  0.93180520    -0.86600
Zr97       Zr  0.49117519  0.41793959  0.99920686     2.84300
O98         O  0.45344022  0.45733920  0.04035929    -1.08600
O99         O  0.02932085  0.45802535  0.95923057    -1.09300
C100        C  0.49097872  0.40021716  0.89460300     1.06100
C101        C  0.48895575  0.39793631  0.10294552     1.06000
C102        C  0.08791887  0.39842664  0.00042130     1.09000
C103        C  0.39424716  0.39940975  0.99929984     1.06800
H104        H  0.04484635  0.44067997  0.05806973     0.32300
O105        O  0.02936769  0.45689588  0.04081799    -1.29600
H106        H  0.43790273  0.44235803  0.94127824     0.32000
O107        O  0.45355801  0.45813126  0.95860609    -1.31200
O108        O  0.49300158  0.05922848  0.11515196    -0.87000
O109        O  0.49360474  0.06074154  0.88531214    -0.88500
O110        O  0.09663142  0.49873700  0.06783296    -0.87100
O111        O  0.38688421  0.49940170  0.06705770    -0.87100
O112        O  0.38646915  0.49600354  0.93277770    -0.86900
O113        O  0.09764562  0.49309026  0.93445770    -0.86700
O114        O  0.05444008  0.10739637  0.00160148    -0.87000
O115        O  0.42961400  0.10767101  0.99835679    -0.86500
O116        O  0.09929946  0.05937402  0.00071079    -0.87600
O117        O  0.38445966  0.05993914  0.99749520    -0.86700
O118        O  0.05075672  0.49516942  0.11658678    -0.87100
O119        O  0.05175363  0.49646401  0.88538531    -0.86800
O120        O  0.43193661  0.49955150  0.88358035    -0.86500
O121        O  0.43237722  0.49686516  0.11654783    -0.86900
O122        O  0.49034410  0.10761832  0.06713059    -0.87200
O123        O  0.49130280  0.10863184  0.93372579    -0.88500
Zr124      Zr  0.49151407  0.49665107  0.08100232     2.83100
Zr125      Zr  0.49168856  0.49813978  0.91891937     2.83500
Zr126      Zr  0.06726122  0.49690179  0.00067047     2.84100
Zr127      Zr  0.41609648  0.49750838  0.99973380     2.83400
Zr128      Zr  0.49186617  0.07670822  0.00023422     2.84200
O129        O  0.45366359  0.03753215  0.95913235    -1.09100
O130        O  0.02960618  0.03666275  0.04122169    -1.08600
C131        C  0.49178533  0.09521483  0.10427828     1.06100
C132        C  0.49271765  0.09656171  0.89651346     1.08700
C133        C  0.08513195  0.49718109  0.10505656     1.06200
C134        C  0.39805234  0.49888490  0.10458822     1.06600
C135        C  0.39758449  0.49726074  0.89537886     1.06200
C136        C  0.08610786  0.49400299  0.89717477     1.05700
C137        C  0.08886166  0.09519925  0.00149464     1.06200
C138        C  0.39516033  0.09567450  0.99749906     1.05700
H139        H  0.04598287  0.05307166  0.94263949     0.32300
O140        O  0.03005901  0.03719327  0.95961538    -1.30200
H141        H  0.43826464  0.05286964  0.05778006     0.32400
O142        O  0.45386224  0.03686335  0.04074084    -1.31600
N143        N  0.24236690  0.18702658  0.00539772    -0.37100
N144        N  0.29976133  0.24742819  0.99955013    -0.57700
N145        N  0.24124006  0.30700499  0.00348289    -0.37100
N146        N  0.18378328  0.24670216  0.00412996    -0.57700
C147        C  0.27298137  0.16487486  0.99769936     0.26400
C148        C  0.21154800  0.16448824  0.99999100     0.26400
C149        C  0.27166047  0.32939848  0.99557479     0.26400
C150        C  0.21017352  0.32888371  0.99677049     0.26400
C151        C  0.32251450  0.21619166  0.00320865     0.35100
C152        C  0.32193510  0.27909226  0.00329403     0.35100
C153        C  0.16194338  0.21510872  0.01000469     0.35100
C154        C  0.16132095  0.27801204  0.00876711     0.35100
C155        C  0.26147165  0.12748288  0.98836494    -0.22400
C156        C  0.22282992  0.12725204  0.98976217    -0.22400
C157        C  0.25976297  0.36619955  0.98433238    -0.22400
C158        C  0.22107669  0.36585243  0.98498318    -0.22400
C159        C  0.35937266  0.22810973  0.00852566    -0.23500
C160        C  0.35899925  0.26784657  0.00865807    -0.23500
C161        C  0.12539498  0.22645406  0.01817731    -0.23500
C162        C  0.12499601  0.26620391  0.01736841    -0.23500
C163        C  0.31101408  0.17704501  0.99994643    -0.18800
C164        C  0.17360093  0.17617571  0.00511593    -0.18800
C165        C  0.17237889  0.31699680  0.00268887    -0.18800
C166        C  0.30982203  0.31803448  0.99967142    -0.18800
H167        H  0.27907443  0.10288848  0.98109535     0.14100
H168        H  0.20506323  0.10242564  0.98381329     0.14100
H169        H  0.27715839  0.39080150  0.97642142     0.14100
H170        H  0.20303989  0.39016941  0.97776009     0.14100
H171        H  0.38405075  0.21008551  0.01185796     0.12400
H172        H  0.38337090  0.28631740  0.01199287     0.12400
H173        H  0.10133393  0.20801694  0.02359918     0.12400
H174        H  0.10058168  0.28429644  0.02204293     0.12400
H175        H  0.24260097  0.21489045  0.01713513     0.25600
H176        H  0.24181630  0.27971736  0.01671886     0.25600
C177        C  0.03981732  0.25003105  0.27991680     0.86000
C178        C  0.03780130  0.21501036  0.25121883    -0.54300
C179        C  0.50534988  0.21263258  0.22886908     0.08900
C180        C  0.47773744  0.24607768  0.23750685     0.19800
C181        C  0.03314564  0.28538944  0.25227781    -0.55000
C182        C  0.50087837  0.28324967  0.22992457     0.09000
C183        C  0.50439148  0.24760714  0.30558067    -0.54500
C184        C  0.47201802  0.24450206  0.28395943     0.09600
H185        H  0.06067486  0.19441422  0.24848988     0.14100
H186        H  0.45110267  0.24469122  0.22003571    -0.00200
H187        H  0.05214976  0.30967537  0.24904398     0.14400
H188        H  0.50495491  0.24774174  0.33866364     0.14200
C189        C  0.20672070  0.49690303  0.22120577     0.86000
C190        C  0.21301047  0.46225107  0.24994282    -0.54300
C191        C  0.24596359  0.46415786  0.27114372     0.08900
C192        C  0.26994379  0.50024576  0.26167440     0.19800
C193        C  0.21047275  0.03273512  0.24851231    -0.55000
C194        C  0.24341243  0.03464934  0.26988912     0.09000
C195        C  0.24161467  0.49730787  0.19447453    -0.54500
C196        C  0.27462952  0.50005694  0.21505757     0.09600
H197        H  0.19343893  0.43863154  0.25451243     0.14100
H198        H  0.29689348  0.50152015  0.27862792    -0.00200
H199        H  0.18827867  0.05411474  0.25142468     0.14400
H200        H  0.24021200  0.49627401  0.16144004     0.14200
C201        C  0.04377854  0.24986273  0.72136800     0.86000
C202        C  0.03710600  0.28538561  0.74840357    -0.54300
C203        C  0.50405385  0.28426041  0.76941314     0.08900
C204        C  0.48040862  0.24735858  0.76126599     0.19800
C205        C  0.04039038  0.21528429  0.75029218    -0.55000
C206        C  0.50728724  0.21333879  0.77127500     0.09000
C207        C  0.50908074  0.24805939  0.69432727    -0.54500
C208        C  0.47593712  0.24584122  0.71451677     0.09600
H209        H  0.05680219  0.30899372  0.75220199     0.14100
H210        H  0.45327019  0.24654925  0.77765383    -0.00200
H211        H  0.06317795  0.19476830  0.75427867     0.14400
H212        H  0.51078260  0.24825484  0.66130428     0.14200
C213        C  0.20549507  0.49734418  0.77914876     0.86000
C214        C  0.21010532  0.03283389  0.75112008    -0.54300
C215        C  0.24321586  0.03371167  0.72986599     0.08900
C216        C  0.26847924  0.49801671  0.73842944     0.19800
C217        C  0.21048894  0.46237476  0.75109460    -0.55000
C218        C  0.24314629  0.46261180  0.72944717     0.09000
C219        C  0.24051090  0.49817616  0.80572092    -0.54500
C220        C  0.27341802  0.49725785  0.78508805     0.09600
H221        H  0.18904917  0.05508320  0.74744117     0.14100
H222        H  0.29549022  0.49769876  0.72176178    -0.00200
H223        H  0.18941093  0.43979772  0.74797200     0.14400
H224        H  0.23932785  0.49847810  0.83877972     0.14200
C225        C  0.11383037  0.47040734  0.16820837    -0.13900
C226        C  0.11358378  0.49821805  0.13703678     0.08300
C227        C  0.14080868  0.02728264  0.13637916    -0.13900
C228        C  0.16892539  0.02778081  0.16569114    -0.13900
C229        C  0.17157150  0.49809467  0.19508386     0.08300
C230        C  0.14289867  0.46999575  0.19686215    -0.13900
H231        H  0.09235295  0.44818487  0.16940748     0.12300
H232        H  0.14038308  0.04950917  0.11303715     0.12300
H233        H  0.18999344  0.05039293  0.16415680     0.12300
H234        H  0.14275696  0.44735553  0.21952404     0.12300
C235        C  0.37121777  0.48054678  0.17255467    -0.13900
C236        C  0.36921346  0.50215399  0.13621580     0.08300
C237        C  0.33902521  0.52731049  0.12982688    -0.13900
C238        C  0.31002292  0.52906726  0.15786221    -0.13900
C239        C  0.31003161  0.50486042  0.19231565     0.08300
C240        C  0.34149578  0.48168529  0.20045869    -0.13900
H241        H  0.39473546  0.46139189  0.17826848     0.12300
H242        H  0.33754521  0.54514738  0.10269429     0.12300
H243        H  0.28644796  0.54797808  0.15151452     0.12300
H244        H  0.34204367  0.46287704  0.22687534     0.12300
C245        C  0.49027232  0.37973800  0.17689466    -0.13900
C246        C  0.48828606  0.36840568  0.13575907     0.08300
C247        C  0.98721608  0.32865241  0.12648025    -0.13900
C248        C  0.98946073  0.30097641  0.15744896    -0.13900
C249        C  0.49237805  0.31235346  0.19822486     0.08300
C250        C  0.49246089  0.35195660  0.20778111    -0.13900
H251        H  0.49119840  0.41008857  0.18527697     0.12300
H252        H  0.98595124  0.31884084  0.09522285     0.12300
H253        H  0.99138222  0.27082538  0.14920766     0.12300
H254        H  0.49529446  0.36134620  0.23908482     0.12300
C255        C  0.47497001  0.16039529  0.13247767    -0.13900
C256        C  0.49270120  0.12434030  0.13716743     0.08300
C257        C  0.01179108  0.11628364  0.17362931    -0.13900
C258        C  0.01495787  0.14452823  0.20382828    -0.13900
C259        C  0.49856959  0.18129953  0.19856342     0.08300
C260        C  0.47715627  0.18823746  0.16329502    -0.13900
H261        H  0.45927733  0.16698226  0.10505537     0.12300
H262        H  0.02532389  0.08849958  0.17829626     0.12300
H263        H  0.03044970  0.13751755  0.23123158     0.12300
H264        H  0.46264927  0.21532721  0.15881316     0.12300
C265        C  0.11728576  0.36953948  0.00083245    -0.13800
C266        C  0.14276699  0.34625734  0.00146887    -0.15400
C267        C  0.36449184  0.37096663  0.99904680    -0.13800
C268        C  0.33886239  0.34786534  0.99901500    -0.15400
C269        C  0.34041424  0.14772086  0.99797000    -0.13800
C270        C  0.36578226  0.12440345  0.99714148    -0.15400
C271        C  0.11853511  0.12372189  0.00245081    -0.13800
C272        C  0.14420716  0.14674277  0.00363138    -0.15400
C273        C  0.33872498  0.46878783  0.86946671    -0.13900
C274        C  0.36853193  0.49458168  0.86379604     0.08300
C275        C  0.36976148  0.51761377  0.82844036    -0.13900
C276        C  0.33982432  0.51689430  0.80062784    -0.13900
C277        C  0.30892390  0.49272364  0.80786420     0.08300
C278        C  0.30952862  0.46744824  0.84148829    -0.13900
H279        H  0.33774153  0.45005056  0.89595206     0.12300
H280        H  0.39287311  0.53744203  0.82345178     0.12300
H281        H  0.33980544  0.53662741  0.77496319     0.12300
H282        H  0.28634058  0.44786805  0.84720424     0.12300
C283        C  0.11288433  0.52003783  0.83343237    -0.13900
C284        C  0.11429744  0.49286727  0.86511204     0.08300
C285        C  0.14244229  0.46470780  0.86565424    -0.13900
C286        C  0.16980905  0.46471298  0.83551323    -0.13900
C287        C  0.17075648  0.49418345  0.80563819     0.08300
C288        C  0.14103177  0.52099690  0.80408591    -0.13900
H289        H  0.09069231  0.54148437  0.83229584     0.12300
H290        H  0.14329559  0.44288973  0.88940782     0.12300
H291        H  0.19170868  0.44295800  0.83688458     0.12300
H292        H  0.13928384  0.54319017  0.78105639     0.12300
C293        C  0.97390126  0.16043243  0.86633780    -0.13900
C294        C  0.49419228  0.12569784  0.86376982     0.08300
C295        C  0.51575109  0.11838341  0.82902941    -0.13900
C296        C  0.51853597  0.14609851  0.79831873    -0.13900
C297        C  0.49986254  0.18195201  0.80154994     0.08300
C298        C  0.97615708  0.18799413  0.83510743    -0.13900
H299        H  0.95617711  0.16613562  0.89236884     0.12300
H300        H  0.53121615  0.09149530  0.82601611     0.12300
H301        H  0.53563480  0.13929001  0.77215556     0.12300
H302        H  0.95992043  0.21416077  0.83799626     0.12300
C303        C  0.50075313  0.38160769  0.82173198    -0.13900
C304        C  0.49072054  0.37102925  0.86159453     0.08300
C305        C  0.98117139  0.33222497  0.86961461    -0.13900
C306        C  0.98315590  0.30435148  0.83886784    -0.13900
C307        C  0.49488446  0.31460780  0.79964828     0.08300
C308        C  0.50281253  0.35367944  0.79112046    -0.13900
H309        H  0.50819242  0.41126060  0.81440893     0.12300
H310        H  0.97297118  0.32319631  0.89988294     0.12300
H311        H  0.97763513  0.27454264  0.84651806     0.12300
H312        H  0.51178281  0.36240557  0.76100187     0.12300
C313        C  0.41178932  0.21915272  0.62816694    -0.13900
C314        C  0.38096738  0.24330323  0.63499789     0.08300
C315        C  0.37872577  0.26417798  0.67175399    -0.13900
C316        C  0.40864469  0.26331400  0.69965556    -0.13900
C317        C  0.44059536  0.24102703  0.69123021     0.08300
C318        C  0.44094915  0.21755195  0.65624525    -0.13900
H319        H  0.41356962  0.20184679  0.60074313     0.12300
H320        H  0.35476970  0.28256013  0.67787930     0.12300
H321        H  0.40773642  0.28158481  0.72641321     0.12300
H322        H  0.46479203  0.19916688  0.64961122     0.12300
C323        C  0.11026623  0.21637430  0.63884606    -0.13900
C324        C  0.13642550  0.24643820  0.63733729     0.08300
C325        C  0.13538445  0.27611785  0.66639160    -0.13900
C326        C  0.10661624  0.27721219  0.69513097    -0.13900
C327        C  0.07895208  0.24802231  0.69555525     0.08300
C328        C  0.08235848  0.21669075  0.66827325    -0.13900
H329        H  0.11126860  0.19285933  0.61703462     0.12300
H330        H  0.15596568  0.29925367  0.66576161     0.12300
H331        H  0.10609786  0.30136357  0.71590222     0.12300
H332        H  0.06195712  0.19338282  0.66836168     0.12300
C333        C  0.27533026  0.08565254  0.63363020    -0.13900
C334        C  0.25715734  0.12153430  0.63742057     0.08300
C335        C  0.23860518  0.13012650  0.67395895    -0.13900
C336        C  0.23586473  0.10237946  0.70477916    -0.13900
C337        C  0.25182756  0.06531934  0.70004304     0.08300
C338        C  0.27344212  0.05822614  0.66508322    -0.13900
H339        H  0.29102438  0.07884658  0.60638961     0.12300
H340        H  0.22504443  0.15793867  0.67820931     0.12300
H341        H  0.22063807  0.10992748  0.73207681     0.12300
H342        H  0.28816302  0.03128841  0.66122878     0.12300
C343        C  0.24650325  0.36522041  0.67668586    -0.13900
C344        C  0.25835531  0.37574485  0.63737045     0.08300
C345        C  0.26813587  0.41450481  0.62975480    -0.13900
C346        C  0.26489524  0.44233723  0.66035931    -0.13900
C347        C  0.25157285  0.43219286  0.69900667     0.08300
C348        C  0.24298250  0.39320314  0.70711544    -0.13900
H349        H  0.23874496  0.33557224  0.68364110     0.12300
H350        H  0.27755755  0.42351806  0.59990320     0.12300
H351        H  0.27094378  0.47202517  0.65296864     0.12300
H352        H  0.23282017  0.38450772  0.73678910     0.12300
C353        C  0.40730518  0.09785578  0.49576904    -0.13800
C354        C  0.38199521  0.12119962  0.49591967    -0.15400
C355        C  0.12910447  0.12278692  0.49928144    -0.13800
C356        C  0.10345841  0.09969401  0.49928837    -0.15400
C357        C  0.13101943  0.37626917  0.50176561    -0.13800
C358        C  0.10532574  0.39929739  0.50200669    -0.15400
C359        C  0.38387806  0.37420901  0.49805027    -0.13800
C360        C  0.40914323  0.39759439  0.49792729    -0.15400
C361        C  0.10508786  0.22026270  0.36585797    -0.13900
C362        C  0.13154320  0.25013886  0.36604943     0.08300
C363        C  0.13064256  0.27862119  0.33566368    -0.13900
C364        C  0.10202365  0.27859848  0.30658589    -0.13900
C365        C  0.07433354  0.24943153  0.30706520     0.08300
C366        C  0.07735680  0.21937190  0.33603805    -0.13900
H367        H  0.10603450  0.19754387  0.38865952     0.12300
H368        H  0.15149997  0.30148544  0.33516530     0.12300
H369        H  0.10195690  0.30165195  0.28442334     0.12300
H370        H  0.05700478  0.19602566  0.33668714     0.12300
C371        C  0.40650202  0.21519071  0.36723337    -0.13900
C372        C  0.37660100  0.24078289  0.36097691     0.08300
C373        C  0.37498818  0.26276222  0.32487895    -0.13900
C374        C  0.40491364  0.26178673  0.29728487    -0.13900
C375        C  0.43622794  0.23849235  0.30552011     0.08300
C376        C  0.43578003  0.21365787  0.33949041    -0.13900
H377        H  0.40770970  0.19713522  0.39422347     0.12300
H378        H  0.35176345  0.28231955  0.31929132     0.12300
H379        H  0.40478635  0.28108414  0.27125386     0.12300
H380        H  0.45932734  0.19472016  0.34590630     0.12300
C381        C  0.25422043  0.41856986  0.37481009    -0.13900
C382        C  0.25991095  0.37932352  0.36495495     0.08300
C383        C  0.26460871  0.36902714  0.32382629    -0.13900
C384        C  0.26187081  0.39707096  0.29322121    -0.13900
C385        C  0.25485701  0.43584000  0.30324840     0.08300
C386        C  0.25138722  0.44647934  0.34415101    -0.13900
H387        H  0.25026438  0.42753400  0.40606998     0.12300
H388        H  0.26933630  0.33914147  0.31515063     0.12300
H389        H  0.26408762  0.38838395  0.26165535     0.12300
H390        H  0.24424929  0.47590678  0.35230990     0.12300
C391        C  0.27080666  0.08495506  0.36794256    -0.13900
C392        C  0.25569394  0.12215313  0.36195332     0.08300
C393        C  0.23993632  0.13144444  0.32391735    -0.13900
C394        C  0.23731506  0.10345393  0.29340891    -0.13900
C395        C  0.25091268  0.06572727  0.30002703     0.08300
C396        C  0.26906753  0.05725145  0.33695138    -0.13900
H397        H  0.28386018  0.07723718  0.39662612     0.12300
H398        H  0.22845764  0.16001849  0.31815957     0.12300
H399        H  0.22409394  0.11118738  0.26482362     0.12300
H400        H  0.28081789  0.02888005  0.34257326     0.12300
O401        O  0.25432299  0.68721800  0.38429089    -0.87000
O402        O  0.25689455  0.68633193  0.61495510    -0.87200
O403        O  0.31829547  0.63821300  0.49731217    -0.88900
O404        O  0.19334364  0.63879604  0.49931661    -0.87600
O405        O  0.14869935  0.68700095  0.49972883    -0.87200
O406        O  0.36372712  0.68566573  0.49685594    -0.88600
O407        O  0.25818002  0.63814946  0.56679571    -0.87100
O408        O  0.25733844  0.63872718  0.43219282    -0.86600
Zr409      Zr  0.25611568  0.66929724  0.49934326     2.84300
O410        O  0.21909464  0.70897740  0.54096492    -1.08600
O411        O  0.29315338  0.70947297  0.45812693    -1.09300
C412        C  0.25595245  0.65120211  0.39504562     1.06100
C413        C  0.25761557  0.65042402  0.60407774     1.06000
C414        C  0.35280599  0.65002825  0.49663107     1.09000
C415        C  0.15895666  0.65114177  0.49943042     1.06800
H416        H  0.31056847  0.69235873  0.55656903     0.32300
O417        O  0.29482294  0.70855238  0.53973948    -1.29600
H418        H  0.20209217  0.69396547  0.44189456     0.32000
O419        O  0.21803174  0.70967520  0.45898946    -1.31200
O420        O  0.25804607  0.81069183  0.61514198    -0.87000
O421        O  0.25782626  0.81335385  0.38541726    -0.88500
O422        O  0.36224015  0.74549182  0.56579850    -0.87100
O423        O  0.15249305  0.74573047  0.56801031    -0.87100
O424        O  0.14982762  0.74914873  0.43480130    -0.86900
O425        O  0.35969538  0.74441412  0.43029180    -0.86700
O426        O  0.32002204  0.85813121  0.49955705    -0.87000
O427        O  0.19504846  0.85940239  0.50057933    -0.86500
O428        O  0.36470694  0.80996014  0.49793267    -0.87600
O429        O  0.14976211  0.81178212  0.50181879    -0.86700
O430        O  0.31749255  0.74859640  0.61575057    -0.87100
O431        O  0.31371462  0.74794133  0.38137689    -0.86800
O432        O  0.19477563  0.75239537  0.38497573    -0.86500
O433        O  0.19893261  0.74912618  0.61643273    -0.86900
O434        O  0.25968168  0.85897080  0.56714350    -0.87200
O435        O  0.25857200  0.86054857  0.43450882    -0.88500
Zr436      Zr  0.25787496  0.74856608  0.58068511     2.83100
Zr437      Zr  0.25527855  0.74991712  0.41829124     2.83500
Zr438      Zr  0.33217549  0.74799883  0.49850815     2.84100
Zr439      Zr  0.18117658  0.74907059  0.50074632     2.83400
Zr440      Zr  0.25737990  0.82804512  0.50030398     2.84200
O441        O  0.21818153  0.78931341  0.45962136    -1.09100
O442        O  0.29585969  0.78803252  0.54027855    -1.08600
C443        C  0.25899425  0.84664441  0.60434100     1.06100
C444        C  0.25886360  0.84913302  0.39707102     1.08700
C445        C  0.35165413  0.74629459  0.60349324     1.06200
C446        C  0.16444362  0.74706768  0.60513312     1.06600
C447        C  0.16059278  0.75083678  0.39736326     1.06200
C448        C  0.34810405  0.74486856  0.39289834     1.05700
C449        C  0.35433275  0.84577897  0.49855560     1.06200
C450        C  0.16050734  0.84751830  0.50134268     1.05700
H451        H  0.31020213  0.80415813  0.44132021     0.32300
O452        O  0.29441211  0.78844138  0.45853934    -1.30200
H453        H  0.20409014  0.80446513  0.55866201     0.32400
O454        O  0.21942556  0.78858161  0.54126832    -1.31600
N455        N  0.00567960  0.55841487  0.49464836    -0.37100
N456        N  0.06436504  0.99911302  0.50064602    -0.57700
N457        N  0.00669759  0.93874391  0.50321676    -0.37100
N458        N  0.44789325  0.99809171  0.49704934    -0.57700
C459        C  0.03614345  0.58158079  0.49968626     0.26400
C460        C  0.47466296  0.58098728  0.49810546     0.26400
C461        C  0.03770579  0.91606341  0.50029338     0.26400
C462        C  0.47622523  0.91559132  0.49837534     0.26400
C463        C  0.08672421  0.53079070  0.49921086     0.35100
C464        C  0.08731329  0.96789221  0.50211511     0.35100
C465        C  0.42496793  0.52928284  0.49537728     0.35100
C466        C  0.42555648  0.96642082  0.49798462     0.35100
C467        C  0.02427305  0.61948619  0.50547955    -0.22400
C468        C  0.48565605  0.61912390  0.50446200    -0.22400
C469        C  0.02666824  0.87784746  0.49461853    -0.22400
C470        C  0.48805400  0.87755443  0.49335548    -0.22400
C471        C  0.12408411  0.51955710  0.49980165    -0.23500
C472        C  0.12445440  0.97989114  0.50173580    -0.23500
C473        C  0.38779461  0.51730807  0.49516717    -0.23500
C474        C  0.38816274  0.97761642  0.49689196    -0.23500
C475        C  0.07439599  0.56983403  0.49895669    -0.18800
C476        C  0.43668076  0.56850267  0.49579452    -0.18800
C477        C  0.43800949  0.92744217  0.49846852    -0.18800
C478        C  0.07572306  0.92859365  0.50213548    -0.18800
H479        H  0.04162899  0.64483048  0.51036132     0.14100
H480        H  0.46771132  0.64414745  0.50843159     0.14100
H481        H  0.04458381  0.85273737  0.49114373     0.14100
H482        H  0.47068303  0.85216674  0.48876610     0.14100
H483        H  0.14865769  0.53798806  0.49919015     0.12400
H484        H  0.14936270  0.96196318  0.50239042     0.12400
H485        H  0.36289806  0.53525819  0.49428700     0.12400
H486        H  0.36359611  0.95915487  0.49710264     0.12400
H487        H  0.00610978  0.52950966  0.48620375     0.25600
H488        H  0.00623745  0.96782429  0.51091675     0.25600
O489        O  0.49142938  0.93622603  0.88382521    -0.87000
O490        O  0.48958414  0.93377987  0.11414446    -0.87200
O491        O  0.05339045  0.88659550  0.99927019    -0.88900
O492        O  0.42863979  0.88716567  0.99851395    -0.87600
O493        O  0.38389850  0.93523810  0.00024239    -0.91200
O494        O  0.09869649  0.93415202  0.00143939    -0.88600
O495        O  0.48938715  0.88609147  0.06560207    -0.87100
O496        O  0.49087550  0.88782729  0.93180515    -0.86600
Zr497      Zr  0.49117508  0.91793959  0.99920680     2.84300
O498        O  0.45344009  0.95733911  0.04035930    -1.08600
O499        O  0.02932089  0.95802531  0.95923056    -1.09300
C500        C  0.49097877  0.90021717  0.89460294     1.06100
C501        C  0.48895575  0.89793628  0.10294540     1.06000
C502        C  0.08791899  0.89842652  0.00042161     1.09000
C503        C  0.39424701  0.89940973  0.99929984     1.06800
H504        H  0.04484661  0.94067975  0.05807012     0.32300
O505        O  0.02936778  0.95689585  0.04081810    -1.29600
H506        H  0.43790250  0.94235809  0.94127824     0.32000
O507        O  0.45355787  0.95813128  0.95860606    -1.31200
O508        O  0.49300151  0.55922857  0.11515199    -0.87000
O509        O  0.49360467  0.56074156  0.88531229    -0.88500
O510        O  0.09663154  0.99873695  0.06783284    -0.87100
O511        O  0.38688419  0.99940177  0.06705790    -0.87100
O512        O  0.38646914  0.99600344  0.93277771    -0.86900
O513        O  0.09764571  0.99308988  0.93445769    -0.86700
O514        O  0.05444001  0.60739655  0.00160152    -0.87000
O515        O  0.42961403  0.60767106  0.99835680    -0.86500
O516        O  0.09929936  0.55937418  0.00071109    -0.87600
O517        O  0.38445968  0.55993921  0.99749521    -0.86700
O518        O  0.05075678  0.99516960  0.11658661    -0.87100
O519        O  0.05175369  0.99646366  0.88538533    -0.86800
O520        O  0.43193659  0.99955139  0.88358034    -0.86500
O521        O  0.43237719  0.99686524  0.11654803    -0.86900
O522        O  0.49034401  0.60761834  0.06713056    -0.87200
O523        O  0.49130273  0.60863186  0.93372595    -0.88500
Zr524      Zr  0.49151394  0.99665101  0.08100228     2.83100
Zr525      Zr  0.49168853  0.99813978  0.91891934     2.83500
Zr526      Zr  0.06726130  0.99690165  0.00067047     2.84100
Zr527      Zr  0.41609639  0.99750835  0.99973386     2.83400
Zr528      Zr  0.49186621  0.57670816  0.00023426     2.84200
O529        O  0.45366363  0.53753216  0.95913233    -1.09100
O530        O  0.02960608  0.53666282  0.04122164    -1.08600
C531        C  0.49178523  0.59521490  0.10427827     1.06100
C532        C  0.49271754  0.59656173  0.89651361     1.08700
C533        C  0.08513201  0.99718119  0.10505643     1.06200
C534        C  0.39805231  0.99888494  0.10458842     1.06600
C535        C  0.39758447  0.99726063  0.89537886     1.06200
C536        C  0.08610793  0.99400261  0.89717477     1.05700
C537        C  0.08886159  0.59519943  0.00149486     1.06200
C538        C  0.39516035  0.59567457  0.99749911     1.05700
H539        H  0.04598276  0.55307176  0.94263948     0.32300
O540        O  0.03005891  0.53719335  0.95961536    -1.30200
H541        H  0.43826463  0.55286962  0.05778003     0.32400
O542        O  0.45386227  0.53686333  0.04074086    -1.31600
N543        N  0.24236697  0.68702660  0.00539930    -0.37100
N544        N  0.29976132  0.74742811  0.99955132    -0.57700
N545        N  0.24124008  0.80700471  0.00348246    -0.37100
N546        N  0.18378345  0.74670204  0.00413059    -0.57700
C547        C  0.27298139  0.66487521  0.99769929     0.26400
C548        C  0.21154808  0.66448849  0.99999088     0.26400
C549        C  0.27166049  0.82939822  0.99557417     0.26400
C550        C  0.21017354  0.82888350  0.99676978     0.26400
C551        C  0.32251441  0.71619163  0.00321084     0.35100
C552        C  0.32193499  0.77909220  0.00329549     0.35100
C553        C  0.16194371  0.71510866  0.01000617     0.35100
C554        C  0.16132122  0.77801197  0.00876789     0.35100
C555        C  0.26147167  0.62748389  0.98836202    -0.22400
C556        C  0.22282990  0.62725297  0.98975920    -0.22400
C557        C  0.25976302  0.86619915  0.98433119    -0.22400
C558        C  0.22107668  0.86585212  0.98498197    -0.22400
C559        C  0.35937243  0.72810966  0.00852898    -0.23500
C560        C  0.35899895  0.76784649  0.00866086    -0.23500
C561        C  0.12539553  0.72645410  0.01817951    -0.23500
C562        C  0.12499650  0.76620389  0.01737022    -0.23500
C563        C  0.31101410  0.67704511  0.99994756    -0.18800
C564        C  0.17360107  0.67617571  0.00511679    -0.18800
C565        C  0.17237898  0.81699664  0.00268876    -0.18800
C566        C  0.30982203  0.81803433  0.99967168    -0.18800
H567        H  0.27907451  0.60289003  0.98109052     0.14100
H568        H  0.20506313  0.60242705  0.98380830     0.14100
H569        H  0.27715856  0.89080099  0.97642015     0.14100
H570        H  0.20303987  0.89016907  0.97775873     0.14100
H571        H  0.38405046  0.71008547  0.01186216     0.12400
H572        H  0.38337054  0.78631732  0.01199611     0.12400
H573        H  0.10133454  0.70801703  0.02360201     0.12400
H574        H  0.10058223  0.78429642  0.02204508     0.12400
H575        H  0.24260106  0.71488954  0.01713901     0.25600
H576        H  0.24181628  0.77971733  0.01671874     0.25600
C577        C  0.03981734  0.75003095  0.27991677     0.86000
C578        C  0.03780128  0.71501028  0.25121878    -0.54300
C579        C  0.50534982  0.71263270  0.22886909     0.08900
C580        C  0.47773740  0.74607787  0.23750685     0.19800
C581        C  0.03314560  0.78538934  0.25227778    -0.55000
C582        C  0.50087839  0.78324982  0.22992461     0.09000
C583        C  0.50439139  0.74760730  0.30558071    -0.54500
C584        C  0.47201796  0.74450222  0.28395942     0.09600
H585        H  0.06067484  0.69441415  0.24848978     0.14100
H586        H  0.45110263  0.74469146  0.22003569    -0.00200
H587        H  0.05214971  0.80967526  0.24904388     0.14400
H588        H  0.50495479  0.74774189  0.33866368     0.14200
C589        C  0.20672064  0.99690301  0.22120587     0.86000
C590        C  0.21301022  0.96225113  0.24994305    -0.54300
C591        C  0.24596341  0.96415788  0.27114392     0.08900
C592        C  0.26994377  0.00024572  0.26167457     0.19800
C593        C  0.21047269  0.53273509  0.24851235    -0.55000
C594        C  0.24341238  0.53464929  0.26988913     0.09000
C595        C  0.24161464  0.99730770  0.19447468    -0.54500
C596        C  0.27462950  0.00005669  0.21505773     0.09600
H597        H  0.19343864  0.93863164  0.25451270     0.14100
H598        H  0.29689344  0.00152008  0.27862811    -0.00200
H599        H  0.18827859  0.55411467  0.25142476     0.14400
H600        H  0.24021201  0.99627386  0.16144018     0.14200
C601        C  0.04377849  0.74986295  0.72136799     0.86000
C602        C  0.03710598  0.78538583  0.74840362    -0.54300
C603        C  0.50405395  0.78426029  0.76941312     0.08900
C604        C  0.48040866  0.74735846  0.76126601     0.19800
C605        C  0.04039026  0.71528442  0.75029209    -0.55000
C606        C  0.50728728  0.71333865  0.77127511     0.09000
C607        C  0.50908077  0.74805907  0.69432732    -0.54500
C608        C  0.47593717  0.74584102  0.71451681     0.09600
H609        H  0.05680211  0.80899400  0.75220203     0.14100
H610        H  0.45327020  0.74654921  0.77765384    -0.00200
H611        H  0.06317781  0.69476839  0.75427861     0.14400
H612        H  0.51078262  0.74825439  0.66130433     0.14200
C613        C  0.20549505  0.99734395  0.77914878     0.86000
C614        C  0.21010547  0.53283408  0.75112006    -0.54300
C615        C  0.24321597  0.53371174  0.72986596     0.08900
C616        C  0.26847922  0.99801666  0.73842945     0.19800
C617        C  0.21048903  0.96237451  0.75109467    -0.55000
C618        C  0.24314632  0.96261172  0.72944720     0.09000
C619        C  0.24051088  0.99817609  0.80572094    -0.54500
C620        C  0.27341801  0.99725781  0.78508806     0.09600
H621        H  0.18904938  0.55508346  0.74744113     0.14100
H622        H  0.29549019  0.99769873  0.72176176    -0.00200
H623        H  0.18941111  0.93979735  0.74797211     0.14400
H624        H  0.23932777  0.99847815  0.83877975     0.14200
C625        C  0.11383034  0.97040739  0.16820831    -0.13900
C626        C  0.11358380  0.99821815  0.13703674     0.08300
C627        C  0.14080859  0.52728255  0.13637919    -0.13900
C628        C  0.16892525  0.52778075  0.16569118    -0.13900
C629        C  0.17157153  0.99809473  0.19508386     0.08300
C630        C  0.14289864  0.96999579  0.19686211    -0.13900
H631        H  0.09235293  0.94818491  0.16940740     0.12300
H632        H  0.14038299  0.54950910  0.11303719     0.12300
H633        H  0.18999324  0.55039294  0.16415684     0.12300
H634        H  0.14275691  0.94735559  0.21952402     0.12300
C635        C  0.37121777  0.98054680  0.17255486    -0.13900
C636        C  0.36921343  0.00215399  0.13621597     0.08300
C637        C  0.33902517  0.02731045  0.12982702    -0.13900
C638        C  0.31002296  0.02906700  0.15786241    -0.13900
C639        C  0.31003159  0.00486019  0.19231582     0.08300
C640        C  0.34149579  0.98168521  0.20045882    -0.13900
H641        H  0.39473548  0.96139194  0.17826874     0.12300
H642        H  0.33754503  0.04514739  0.10269448     0.12300
H643        H  0.28644797  0.04797774  0.15151473     0.12300
H644        H  0.34204377  0.96287691  0.22687542     0.12300
C645        C  0.49027274  0.87973805  0.17689449    -0.13900
C646        C  0.48828610  0.86840567  0.13575896     0.08300
C647        C  0.98721627  0.82865232  0.12648026    -0.13900
C648        C  0.98946090  0.80097629  0.15744894    -0.13900
C649        C  0.49237821  0.81235357  0.19822484     0.08300
C650        C  0.49246137  0.85195675  0.20778102    -0.13900
H651        H  0.49119911  0.91008863  0.18527671     0.12300
H652        H  0.98595165  0.81884075  0.09522284     0.12300
H653        H  0.99138258  0.77082527  0.14920761     0.12300
H654        H  0.49529519  0.86134645  0.23908469     0.12300
C655        C  0.47496987  0.66039542  0.13247763    -0.13900
C656        C  0.49270110  0.62434043  0.13716737     0.08300
C657        C  0.01179106  0.61628334  0.17362943    -0.13900
C658        C  0.01495786  0.64452800  0.20382841    -0.13900
C659        C  0.49856950  0.68129966  0.19856340     0.08300
C660        C  0.47715606  0.68823751  0.16329508    -0.13900
H661        H  0.45927720  0.66698243  0.10505533     0.12300
H662        H  0.02532380  0.58849924  0.17829634     0.12300
H663        H  0.03044961  0.63751740  0.23123175     0.12300
H664        H  0.46264894  0.71532720  0.15881331     0.12300
C665        C  0.11728586  0.86953935  0.00083270    -0.13800
C666        C  0.14276707  0.84625718  0.00146888    -0.15400
C667        C  0.36449175  0.87096655  0.99904678    -0.13800
C668        C  0.33886237  0.84786519  0.99901505    -0.15400
C669        C  0.34041423  0.64772097  0.99797063    -0.13800
C670        C  0.36578226  0.62440356  0.99714176    -0.15400
C671        C  0.11853510  0.62372205  0.00245117    -0.13800
C672        C  0.14420725  0.64674281  0.00363194    -0.15400
C673        C  0.33872489  0.96878778  0.86946684    -0.13900
C674        C  0.36853190  0.99458157  0.86379608     0.08300
C675        C  0.36976151  0.01761359  0.82844033    -0.13900
C676        C  0.33982436  0.01689415  0.80062780    -0.13900
C677        C  0.30892391  0.99272356  0.80786419     0.08300
C678        C  0.30952860  0.96744823  0.84148834    -0.13900
H679        H  0.33774134  0.95005058  0.89595225     0.12300
H680        H  0.39287317  0.03744181  0.82345171     0.12300
H681        H  0.33980552  0.03662723  0.77496313     0.12300
H682        H  0.28634053  0.94786810  0.84720425     0.12300
C683        C  0.11288436  0.02003749  0.83343245    -0.13900
C684        C  0.11429744  0.99286691  0.86511201     0.08300
C685        C  0.14244225  0.96470747  0.86565413    -0.13900
C686        C  0.16980903  0.96471265  0.83551318    -0.13900
C687        C  0.17075645  0.99418310  0.80563820     0.08300
C688        C  0.14103175  0.02099650  0.80408596    -0.13900
H689        H  0.09069239  0.04148409  0.83229597     0.12300
H690        H  0.14329558  0.94288941  0.88940774     0.12300
H691        H  0.19170868  0.94295770  0.83688462     0.12300
H692        H  0.13928378  0.04318978  0.78105644     0.12300
C693        C  0.97390163  0.66043252  0.86633778    -0.13900
C694        C  0.49419215  0.62569781  0.86376996     0.08300
C695        C  0.51575109  0.61838343  0.82902969    -0.13900
C696        C  0.51853605  0.64609847  0.79831904    -0.13900
C697        C  0.49986253  0.68195194  0.80155010     0.08300
C698        C  0.97615731  0.68799425  0.83510745    -0.13900
H699        H  0.95617773  0.66613584  0.89236899     0.12300
H700        H  0.53121622  0.59149536  0.82601646     0.12300
H701        H  0.53563504  0.63928994  0.77215600     0.12300
H702        H  0.95992074  0.71416096  0.83799648     0.12300
C703        C  0.50075385  0.88160756  0.82173206    -0.13900
C704        C  0.49072072  0.87102926  0.86159447     0.08300
C705        C  0.98117189  0.83222483  0.86961487    -0.13900
C706        C  0.98315639  0.80435136  0.83886810    -0.13900
C707        C  0.49488456  0.81460774  0.79964821     0.08300
C708        C  0.50281321  0.85367930  0.79112053    -0.13900
H709        H  0.50819355  0.91126037  0.81440910     0.12300
H710        H  0.97297213  0.82319603  0.89988334     0.12300
H711        H  0.97763614  0.77454244  0.84651842     0.12300
H712        H  0.51178388  0.86240536  0.76100207     0.12300
C713        C  0.41178927  0.71915280  0.62816703    -0.13900
C714        C  0.38096735  0.74330328  0.63499802     0.08300
C715        C  0.37872576  0.76417788  0.67175420    -0.13900
C716        C  0.40864475  0.76331392  0.69965567    -0.13900
C717        C  0.44059540  0.74102690  0.69123024     0.08300
C718        C  0.44094912  0.71755184  0.65624529    -0.13900
H719        H  0.41356955  0.70184696  0.60074315     0.12300
H720        H  0.35476968  0.78255997  0.67787964     0.12300
H721        H  0.40773657  0.78158475  0.72641329     0.12300
H722        H  0.46479196  0.69916670  0.64961118     0.12300
C723        C  0.11026610  0.71637451  0.63884605    -0.13900
C724        C  0.13642549  0.74643835  0.63733737     0.08300
C725        C  0.13538454  0.77611801  0.66639176    -0.13900
C726        C  0.10661634  0.77721238  0.69513126    -0.13900
C727        C  0.07895206  0.74802253  0.69555534     0.08300
C728        C  0.08235832  0.71669099  0.66827322    -0.13900
H729        H  0.11126843  0.69285958  0.61703455     0.12300
H730        H  0.15596590  0.79925368  0.66576171     0.12300
H731        H  0.10609801  0.80136364  0.71590264     0.12300
H732        H  0.06195680  0.69338317  0.66836157     0.12300
C733        C  0.27533012  0.58565239  0.63363001    -0.13900
C734        C  0.25715756  0.62153435  0.63742058     0.08300
C735        C  0.23860583  0.63012676  0.67395916    -0.13900
C736        C  0.23586527  0.60237964  0.70477929    -0.13900
C737        C  0.25182774  0.56531936  0.70004297     0.08300
C738        C  0.27344202  0.55822597  0.66508299    -0.13900
H739        H  0.29102397  0.57884632  0.60638927     0.12300
H740        H  0.22504550  0.65793910  0.67820974     0.12300
H741        H  0.22063883  0.60992771  0.73207707     0.12300
H742        H  0.28816269  0.53128814  0.66122841     0.12300
C743        C  0.24650402  0.86522056  0.67668586    -0.13900
C744        C  0.25835530  0.87574513  0.63737023     0.08300
C745        C  0.26813513  0.91450530  0.62975441    -0.13900
C746        C  0.26489444  0.94233777  0.66035892    -0.13900
C747        C  0.25157284  0.93219301  0.69900655     0.08300
C748        C  0.24298322  0.89320313  0.70711556    -0.13900
H749        H  0.23874641  0.83557224  0.68364128     0.12300
H750        H  0.27755625  0.92351866  0.59990266     0.12300
H751        H  0.27094225  0.97202587  0.65296816     0.12300
H752        H  0.23282148  0.88450747  0.73678941     0.12300
C753        C  0.40730521  0.59785573  0.49576879    -0.13800
C754        C  0.38199521  0.62119952  0.49591943    -0.15400
C755        C  0.12910443  0.62278695  0.49928168    -0.13800
C756        C  0.10345837  0.59969405  0.49928875    -0.15400
C757        C  0.13101943  0.87626923  0.50176569    -0.13800
C758        C  0.10532571  0.89929739  0.50200663    -0.15400
C759        C  0.38387804  0.87420898  0.49804993    -0.13800
C760        C  0.40914312  0.89759446  0.49792704    -0.15400
C761        C  0.10508799  0.72026267  0.36585783    -0.13900
C762        C  0.13154318  0.75013905  0.36604947     0.08300
C763        C  0.13064247  0.77862156  0.33566385    -0.13900
C764        C  0.10202357  0.77859860  0.30658600    -0.13900
C765        C  0.07433359  0.74943145  0.30706512     0.08300
C766        C  0.07735699  0.71937176  0.33603788    -0.13900
H767        H  0.10603470  0.69754379  0.38865932     0.12300
H768        H  0.15149971  0.80148596  0.33516561     0.12300
H769        H  0.10195669  0.80165208  0.28442350     0.12300
H770        H  0.05700508  0.69602540  0.33668693     0.12300
C771        C  0.40650211  0.71519078  0.36723343    -0.13900
C772        C  0.37660105  0.74078282  0.36097694     0.08300
C773        C  0.37498828  0.76276211  0.32487902    -0.13900
C774        C  0.40491360  0.76178669  0.29728486    -0.13900
C775        C  0.43622790  0.73849234  0.30552006     0.08300
C776        C  0.43578012  0.71365788  0.33949043    -0.13900
H777        H  0.40770983  0.69713542  0.39422360     0.12300
H778        H  0.35176356  0.78231953  0.31929148     0.12300
H779        H  0.40478621  0.78108418  0.27125388     0.12300
H780        H  0.45932746  0.69472023  0.34590633     0.12300
C781        C  0.25422061  0.91856980  0.37481014    -0.13900
C782        C  0.25991092  0.87932341  0.36495494     0.08300
C783        C  0.26460860  0.86902703  0.32382626    -0.13900
C784        C  0.26187066  0.89707088  0.29322120    -0.13900
C785        C  0.25485692  0.93583996  0.30324847     0.08300
C786        C  0.25138736  0.94647934  0.34415111    -0.13900
H787        H  0.25026475  0.92753389  0.40607006     0.12300
H788        H  0.26933613  0.83914136  0.31515059     0.12300
H789        H  0.26408737  0.88838388  0.26165532     0.12300
H790        H  0.24424959  0.97590681  0.35231005     0.12300
C791        C  0.27080650  0.58495490  0.36794282    -0.13900
C792        C  0.25569381  0.62215300  0.36195340     0.08300
C793        C  0.23993623  0.63144432  0.32391735    -0.13900
C794        C  0.23731499  0.60345380  0.29340893    -0.13900
C795        C  0.25091262  0.56572718  0.30002709     0.08300
C796        C  0.26906739  0.55725134  0.33695152    -0.13900
H797        H  0.28385994  0.57723702  0.39662642     0.12300
H798        H  0.22845757  0.66001840  0.31815953     0.12300
H799        H  0.22409390  0.61118724  0.26482361     0.12300
H800        H  0.28081773  0.52887993  0.34257330     0.12300
O801        O  0.75432308  0.18721805  0.38429086    -0.87000
O802        O  0.75689442  0.18633184  0.61495507    -0.87200
O803        O  0.81829537  0.13821303  0.49731218    -0.88900
O804        O  0.69334342  0.13879622  0.49931689    -0.87600
O805        O  0.64869905  0.18700104  0.49972909    -0.87200
O806        O  0.86372702  0.18566574  0.49685597    -0.88600
O807        O  0.75817990  0.13814935  0.56679570    -0.87100
O808        O  0.75733829  0.13872727  0.43219283    -0.86600
Zr809      Zr  0.75611557  0.16929728  0.49934331     2.84300
O810        O  0.71909453  0.20897748  0.54096490    -1.08600
O811        O  0.79315338  0.20947300  0.45812705    -1.09300
C812        C  0.75595241  0.15120215  0.39504561     1.06100
C813        C  0.75761543  0.15042392  0.60407774     1.06000
C814        C  0.85280589  0.15002827  0.49663107     1.09000
C815        C  0.65895644  0.15114190  0.49943079     1.06800
H816        H  0.81056826  0.19235886  0.55656904     0.32300
O817        O  0.79482282  0.20855243  0.53973955    -1.29600
H818        H  0.70209215  0.19396552  0.44189454     0.32000
O819        O  0.71803165  0.20967516  0.45898939    -1.31200
O820        O  0.75804599  0.31069182  0.61514206    -0.87000
O821        O  0.75782611  0.31335397  0.38541747    -0.88500
O822        O  0.86224013  0.24549168  0.56579867    -0.87100
O823        O  0.65249292  0.24573058  0.56801019    -0.87100
O824        O  0.64982755  0.24914856  0.43480112    -0.86900
O825        O  0.85969520  0.24441398  0.43029187    -0.86700
O826        O  0.82002192  0.35813127  0.49955677    -0.87000
O827        O  0.69504835  0.35940221  0.50057932    -0.86500
O828        O  0.86470685  0.30996022  0.49793264    -0.87600
O829        O  0.64976197  0.31178199  0.50181876    -0.86700
O830        O  0.81749246  0.24859623  0.61575068    -0.87100
O831        O  0.81371454  0.24794142  0.38137689    -0.86800
O832        O  0.69477565  0.25239521  0.38497565    -0.86500
O833        O  0.69893247  0.24912629  0.61643262    -0.86900
O834        O  0.75968135  0.35897075  0.56714354    -0.87200
O835        O  0.75857209  0.36054867  0.43450904    -0.88500
Zr836      Zr  0.75787486  0.24856609  0.58068516     2.83100
Zr837      Zr  0.75527852  0.24991713  0.41829128     2.83500
Zr838      Zr  0.83217544  0.24799888  0.49850832     2.84100
Zr839      Zr  0.68117645  0.24907055  0.50074619     2.83400
Zr840      Zr  0.75737982  0.32804505  0.50030405     2.84200
O841        O  0.71818141  0.28931346  0.45962130    -1.09100
O842        O  0.79585973  0.28803266  0.54027880    -1.08600
C843        C  0.75899404  0.34664436  0.60434105     1.06100
C844        C  0.75886355  0.34913313  0.39707126     1.08700
C845        C  0.85165406  0.24629442  0.60349342     1.06200
C846        C  0.66444350  0.24706786  0.60513301     1.06600
C847        C  0.66059276  0.25083658  0.39736308     1.06200
C848        C  0.84810393  0.24486852  0.39289839     1.05700
C849        C  0.85433266  0.34577905  0.49855537     1.06200
C850        C  0.66050722  0.34751816  0.50134268     1.05700
H851        H  0.81020204  0.30415802  0.44132027     0.32300
O852        O  0.79441204  0.28844131  0.45853944    -1.30200
H853        H  0.70409000  0.30446500  0.55866191     0.32400
O854        O  0.71942544  0.28858150  0.54126825    -1.31600
N855        N  0.50567959  0.05841501  0.49464819    -0.37100
N856        N  0.56436496  0.49911295  0.50064579    -0.57700
N857        N  0.50669758  0.43874395  0.50321683    -0.37100
N858        N  0.94789327  0.49809173  0.49704905    -0.57700
C859        C  0.53614344  0.08158079  0.49968593     0.26400
C860        C  0.97466295  0.08098727  0.49810569     0.26400
C861        C  0.53770576  0.41606339  0.50029319     0.26400
C862        C  0.97622530  0.41559131  0.49837548     0.26400
C863        C  0.58672407  0.03079068  0.49921097     0.35100
C864        C  0.58731323  0.46789215  0.50211535     0.35100
C865        C  0.92496793  0.02928285  0.49537678     0.35100
C866        C  0.92555655  0.46642082  0.49798409     0.35100
C867        C  0.52427308  0.11948624  0.50547898    -0.22400
C868        C  0.98565600  0.11912381  0.50446255    -0.22400
C869        C  0.52666815  0.37784745  0.49461807    -0.22400
C870        C  0.98805413  0.37755437  0.49335625    -0.22400
C871        C  0.62408390  0.01955707  0.49980214    -0.23500
C872        C  0.62445429  0.47989107  0.50173673    -0.23500
C873        C  0.88779466  0.01730804  0.49516618    -0.23500
C874        C  0.88816283  0.47761645  0.49689123    -0.23500
C875        C  0.57439594  0.06983404  0.49895671    -0.18800
C876        C  0.93668075  0.06850268  0.49579443    -0.18800
C877        C  0.93800952  0.42744217  0.49846822    -0.18800
C878        C  0.57572302  0.42859359  0.50213554    -0.18800
H879        H  0.54162900  0.14483055  0.51036070     0.14100
H880        H  0.96771130  0.14414736  0.50843232     0.14100
H881        H  0.54458367  0.35273732  0.49114319     0.14100
H882        H  0.97068311  0.35216663  0.48876735     0.14100
H883        H  0.64865749  0.03798803  0.49919087     0.12400
H884        H  0.64936267  0.46196323  0.50239186     0.12400
H885        H  0.86289807  0.03525806  0.49428585     0.12400
H886        H  0.86359617  0.45915489  0.49710174     0.12400
H887        H  0.50610975  0.02950955  0.48620385     0.25600
H888        H  0.50623746  0.46782420  0.51091724     0.25600
O889        O  0.99142931  0.43622630  0.88382517    -0.87000
O890        O  0.98958437  0.43377975  0.11414443    -0.87200
O891        O  0.55339052  0.38659557  0.99927050    -0.88900
O892        O  0.92863987  0.38716575  0.99851394    -0.87600
O893        O  0.88389864  0.43523823  0.00024240    -0.91200
O894        O  0.59869649  0.43415218  0.00143943    -0.88600
O895        O  0.98938738  0.38609136  0.06560203    -0.87100
O896        O  0.99087566  0.38782752  0.93180509    -0.86600
Zr897      Zr  0.99117506  0.41793967  0.99920681     2.84300
O898        O  0.95344012  0.45733916  0.04035941    -1.08600
O899        O  0.52932097  0.45802519  0.95923040    -1.09300
C900        C  0.99097885  0.40021746  0.89460289     1.06100
C901        C  0.98895603  0.39793615  0.10294537     1.06000
C902        C  0.58791906  0.39842665  0.00042184     1.09000
C903        C  0.89424712  0.39940984  0.99929984     1.06800
H904        H  0.54484643  0.44067997  0.05806984     0.32300
O905        O  0.52936772  0.45689593  0.04081800    -1.29600
H906        H  0.93790258  0.44235827  0.94127824     0.32000
O907        O  0.95355793  0.45813144  0.95860610    -1.31200
O908        O  0.99300144  0.05922851  0.11515199    -0.87000
O909        O  0.99360527  0.06074172  0.88531235    -0.88500
O910        O  0.59663152  0.49873707  0.06783273    -0.87100
O911        O  0.88688431  0.49940193  0.06705807    -0.87100
O912        O  0.88646917  0.49600377  0.93277794    -0.86900
O913        O  0.59764551  0.49309028  0.93445761    -0.86700
O914        O  0.55443988  0.10739664  0.00160122    -0.87000
O915        O  0.92961440  0.10767121  0.99835658    -0.86500
O916        O  0.59929922  0.05937426  0.00071105    -0.87600
O917        O  0.88446004  0.05993937  0.99749524    -0.86700
O918        O  0.55075680  0.49516949  0.11658653    -0.87100
O919        O  0.55175353  0.49646431  0.88538522    -0.86800
O920        O  0.93193661  0.49955200  0.88358058    -0.86500
O921        O  0.93237732  0.49686512  0.11654815    -0.86900
O922        O  0.99034420  0.10761833  0.06713058    -0.87200
O923        O  0.99130283  0.10863194  0.93372604    -0.88500
Zr924      Zr  0.99151407  0.49665100  0.08100236     2.83100
Zr925      Zr  0.99168862  0.49813994  0.91891943     2.83500
Zr926      Zr  0.56726119  0.49690178  0.00067040     2.84100
Zr927      Zr  0.91609651  0.49750849  0.99973401     2.83400
Zr928      Zr  0.99186641  0.07670811  0.00023429     2.84200
O929        O  0.95366377  0.03753221  0.95913236    -1.09100
O930        O  0.52960595  0.03666288  0.04122162    -1.08600
C931        C  0.99178532  0.09521487  0.10427829     1.06100
C932        C  0.99271786  0.09656187  0.89651371     1.08700
C933        C  0.58513202  0.49718115  0.10505630     1.06200
C934        C  0.89805243  0.49888496  0.10458859     1.06600
C935        C  0.89758449  0.49726114  0.89537909     1.06200
C936        C  0.58610775  0.49400316  0.89717468     1.05700
C937        C  0.58886147  0.09519951  0.00149470     1.06200
C938        C  0.89516073  0.09567473  0.99749897     1.05700
H939        H  0.54598254  0.05307169  0.94263943     0.32300
O940        O  0.53005869  0.03719330  0.95961533    -1.30200
H941        H  0.93826474  0.05286970  0.05778000     0.32400
O942        O  0.95386241  0.03686336  0.04074090    -1.31600
N943        N  0.74236714  0.18702647  0.00539893    -0.37100
N944        N  0.79976155  0.24742810  0.99955105    -0.57700
N945        N  0.74124026  0.30700489  0.00348296    -0.37100
N946        N  0.68378358  0.24670214  0.00413090    -0.57700
C947        C  0.77298159  0.16487493  0.99769991     0.26400
C948        C  0.71154824  0.16448826  0.99999164     0.26400
C949        C  0.77166068  0.32939820  0.99557450     0.26400
C950        C  0.71017374  0.32888356  0.99677039     0.26400
C951        C  0.82251472  0.21619161  0.00321008     0.35100
C952        C  0.82193528  0.27909220  0.00329497     0.35100
C953        C  0.66194368  0.21510871  0.01000561     0.35100
C954        C  0.66132122  0.27801206  0.00876786     0.35100
C955        C  0.76147187  0.12748316  0.98836444    -0.22400
C956        C  0.72283009  0.12725227  0.98976179    -0.22400
C957        C  0.75976323  0.36619910  0.98433142    -0.22400
C958        C  0.72107694  0.36585209  0.98498236    -0.22400
C959        C  0.85937289  0.22810970  0.00852752    -0.23500
C960        C  0.85899938  0.26784656  0.00865960    -0.23500
C961        C  0.62539525  0.22645409  0.01817802    -0.23500
C962        C  0.62499619  0.26620396  0.01736906    -0.23500
C963        C  0.81101434  0.17704503  0.99994732    -0.18800
C964        C  0.67360116  0.17617567  0.00511676    -0.18800
C965        C  0.67237912  0.31699679  0.00268928    -0.18800
C966        C  0.80982223  0.31803435  0.99967165    -0.18800
H967        H  0.77907468  0.10288899  0.98109403     0.14100
H968        H  0.70506331  0.10242607  0.98381223     0.14100
H969        H  0.77715876  0.39080085  0.97642005     0.14100
H970        H  0.70304015  0.39016899  0.97775890     0.14100
H971        H  0.88405100  0.21008554  0.01186012     0.12400
H972        H  0.88337095  0.28631749  0.01199445     0.12400
H973        H  0.60133419  0.20801691  0.02359970     0.12400
H974        H  0.60058179  0.28429646  0.02204332     0.12400
H975        H  0.74260123  0.21489008  0.01713713     0.25600
H976        H  0.74181649  0.27971742  0.01671937     0.25600
C977        C  0.53981726  0.25003101  0.27991656     0.86000
C978        C  0.53780122  0.21501039  0.25121853    -0.54300
C979        C  0.00534996  0.21263252  0.22886932     0.08900
C980        C  0.97773755  0.24607770  0.23750704     0.19800
C981        C  0.53314549  0.28538945  0.25227771    -0.55000
C982        C  0.00087854  0.28324965  0.22992467     0.09000
C983        C  0.00439155  0.24760727  0.30558099    -0.54500
C984        C  0.97201811  0.24450213  0.28395968     0.09600
H985        H  0.56067475  0.19441425  0.24848946     0.14100
H986        H  0.95110278  0.24469125  0.22003591    -0.00200
H987        H  0.55214954  0.30967544  0.24904400     0.14400
H988        H  0.00495499  0.24774192  0.33866397     0.14200
C989        C  0.70672048  0.49690277  0.22120591     0.86000
C990        C  0.71301005  0.46225103  0.24994329    -0.54300
C991        C  0.74596321  0.46415788  0.27114420     0.08900
C992        C  0.76994356  0.50024564  0.26167469     0.19800
C993        C  0.71047253  0.03273500  0.24851218    -0.55000
C994        C  0.74341219  0.03464919  0.26988910     0.09000
C995        C  0.74161451  0.49730725  0.19447479    -0.54500
C996        C  0.77462938  0.50005640  0.21505787     0.09600
H997        H  0.69343845  0.43863156  0.25451303     0.14100
H998        H  0.79689321  0.50152010  0.27862827    -0.00200
H999        H  0.68827845  0.05411462  0.25142443     0.14400
H1000       H  0.74021192  0.49627319  0.16144030     0.14200
C1001       C  0.54377855  0.24986285  0.72136799     0.86000
C1002       C  0.53710581  0.28538572  0.74840351    -0.54300
C1003       C  0.00405409  0.28426046  0.76941332     0.08900
C1004       C  0.98040861  0.24735874  0.76126624     0.19800
C1005       C  0.54039042  0.21528441  0.75029219    -0.55000
C1006       C  0.00728723  0.21333883  0.77127515     0.09000
C1007       C  0.00908062  0.24805944  0.69432753    -0.54500
C1008       C  0.97593703  0.24584141  0.71451705     0.09600
H1009       H  0.55680189  0.30899394  0.75220195     0.14100
H1010       H  0.95327019  0.24654956  0.77765414    -0.00200
H1011       H  0.56317799  0.19476840  0.75427871     0.14400
H1012       H  0.01078239  0.24825483  0.66130453     0.14200
C1013       C  0.70549508  0.49734393  0.77914889     0.86000
C1014       C  0.71010570  0.03283416  0.75112035    -0.54300
C1015       C  0.74321619  0.03371174  0.72986621     0.08900
C1016       C  0.76847924  0.49801644  0.73842955     0.19800
C1017       C  0.71048886  0.46237469  0.75109454    -0.55000
C1018       C  0.74314616  0.46261172  0.72944711     0.09000
C1019       C  0.74051092  0.49817555  0.80572102    -0.54500
C1020       C  0.77341806  0.49725734  0.78508814     0.09600
H1021       H  0.68904975  0.05508367  0.74744160     0.14100
H1022       H  0.79549018  0.49769839  0.72176183    -0.00200
H1023       H  0.68941081  0.43979770  0.74797183     0.14400
H1024       H  0.73932784  0.49847737  0.83877982     0.14200
C1025       C  0.61383023  0.47040735  0.16820815    -0.13900
C1026       C  0.61358382  0.49821801  0.13703653     0.08300
C1027       C  0.64080857  0.02728224  0.13637891    -0.13900
C1028       C  0.66892531  0.02778042  0.16569084    -0.13900
C1029       C  0.67157139  0.49809447  0.19508381     0.08300
C1030       C  0.64289841  0.46999567  0.19686204    -0.13900
H1031       H  0.59235272  0.44818496  0.16940723     0.12300
H1032       H  0.64038301  0.04950866  0.11303680     0.12300
H1033       H  0.68999336  0.05039253  0.16415638     0.12300
H1034       H  0.64275653  0.44735549  0.21952397     0.12300
C1035       C  0.87121792  0.48054694  0.17255523    -0.13900
C1036       C  0.86921349  0.50215395  0.13621619     0.08300
C1037       C  0.83902501  0.52731004  0.12982706    -0.13900
C1038       C  0.81002278  0.52906652  0.15786244    -0.13900
C1039       C  0.81003152  0.50485989  0.19231600     0.08300
C1040       C  0.84149590  0.48168520  0.20045924    -0.13900
H1041       H  0.89473578  0.46139234  0.17826916     0.12300
H1042       H  0.83754472  0.54514683  0.10269441     0.12300
H1043       H  0.78644767  0.54797710  0.15151466     0.12300
H1044       H  0.84204403  0.46287707  0.22687597     0.12300
C1045       C  0.99027291  0.37973778  0.17689445    -0.13900
C1046       C  0.98828643  0.36840548  0.13575892     0.08300
C1047       C  0.48721596  0.32865261  0.12648031    -0.13900
C1048       C  0.48946063  0.30097663  0.15744895    -0.13900
C1049       C  0.99237835  0.31235337  0.19822485     0.08300
C1050       C  0.99246147  0.35195654  0.20778101    -0.13900
H1051       H  0.99119915  0.41008836  0.18527670     0.12300
H1052       H  0.48595130  0.31884103  0.09522289     0.12300
H1053       H  0.49138230  0.27082563  0.14920754     0.12300
H1054       H  0.99529519  0.36134629  0.23908468     0.12300
C1055       C  0.97496983  0.16039529  0.13247787    -0.13900
C1056       C  0.99270121  0.12434040  0.13716743     0.08300
C1057       C  0.51179096  0.11628346  0.17362943    -0.13900
C1058       C  0.51495772  0.14452818  0.20382836    -0.13900
C1059       C  0.99856965  0.18129951  0.19856360     0.08300
C1060       C  0.97715613  0.18823737  0.16329532    -0.13900
H1061       H  0.95927698  0.16698230  0.10505571     0.12300
H1062       H  0.52532365  0.08849935  0.17829645     0.12300
H1063       H  0.53044938  0.13751763  0.23123178     0.12300
H1064       H  0.96264901  0.21532705  0.15881357     0.12300
C1065       C  0.61728599  0.36953952  0.00083309    -0.13800
C1066       C  0.64276724  0.34625736  0.00146941    -0.15400
C1067       C  0.86449186  0.37096667  0.99904678    -0.13800
C1068       C  0.83886253  0.34786526  0.99901505    -0.15400
C1069       C  0.84041454  0.14772099  0.99797033    -0.13800
C1070       C  0.86578265  0.12440369  0.99714151    -0.15400
C1071       C  0.61853504  0.12372209  0.00245111    -0.13800
C1072       C  0.64420728  0.14674278  0.00363196    -0.15400
C1073       C  0.83872506  0.46878787  0.86946703    -0.13900
C1074       C  0.86853191  0.49458195  0.86379631     0.08300
C1075       C  0.86976141  0.51761394  0.82844049    -0.13900
C1076       C  0.83982437  0.51689415  0.80062786    -0.13900
C1077       C  0.80892399  0.49272339  0.80786428     0.08300
C1078       C  0.80952878  0.46744811  0.84148851    -0.13900
H1079       H  0.83774164  0.45005061  0.89595235     0.12300
H1080       H  0.89287296  0.53744233  0.82345185     0.12300
H1081       H  0.83980553  0.53662707  0.77496307     0.12300
H1082       H  0.78634083  0.44786783  0.84720439     0.12300
C1083       C  0.61288445  0.52003798  0.83343246    -0.13900
C1084       C  0.61429732  0.49286736  0.86511196     0.08300
C1085       C  0.64244195  0.46470771  0.86565400    -0.13900
C1086       C  0.66980871  0.46471267  0.83551302    -0.13900
C1087       C  0.67075640  0.49418324  0.80563819     0.08300
C1088       C  0.64103188  0.52099689  0.80408605    -0.13900
H1089       H  0.59069262  0.54148474  0.83229597     0.12300
H1090       H  0.64329512  0.44288962  0.88940755     0.12300
H1091       H  0.69170814  0.44295747  0.83688432     0.12300
H1092       H  0.63928404  0.54319029  0.78105666     0.12300
C1093       C  0.47390176  0.16043261  0.86633790    -0.13900
C1094       C  0.99419235  0.12569799  0.86377012     0.08300
C1095       C  0.01575163  0.11838378  0.82902999    -0.13900
C1096       C  0.01853647  0.14609877  0.79831923    -0.13900
C1097       C  0.99986261  0.18195206  0.80155014     0.08300
C1098       C  0.47615745  0.18799433  0.83510753    -0.13900
H1099       H  0.45617809  0.16613600  0.89236924     0.12300
H1100       H  0.03121703  0.09149588  0.82601700     0.12300
H1101       H  0.03563559  0.13929030  0.77215629     0.12300
H1102       H  0.45992102  0.21416108  0.83799655     0.12300
C1103       C  0.00075408  0.38160772  0.82173212    -0.13900
C1104       C  0.99072086  0.37102955  0.86159447     0.08300
C1105       C  0.48117156  0.33222452  0.86961476    -0.13900
C1106       C  0.48315596  0.30435116  0.83886783    -0.13900
C1107       C  0.99488491  0.31460793  0.79964842     0.08300
C1108       C  0.00281350  0.35367945  0.79112071    -0.13900
H1109       H  0.00819381  0.41126052  0.81440905     0.12300
H1110       H  0.47297191  0.32319565  0.89988323     0.12300
H1111       H  0.47763569  0.27454224  0.84651802     0.12300
H1112       H  0.01178415  0.36240554  0.76100222     0.12300
C1113       C  0.91178930  0.21915282  0.62816718    -0.13900
C1114       C  0.88096727  0.24330320  0.63499818     0.08300
C1115       C  0.87872561  0.26417792  0.67175432    -0.13900
C1116       C  0.90864455  0.26331403  0.69965586    -0.13900
C1117       C  0.94059528  0.24102714  0.69123049     0.08300
C1118       C  0.94094913  0.21755210  0.65624549    -0.13900
H1119       H  0.91356970  0.20184695  0.60074335     0.12300
H1120       H  0.85476950  0.28256001  0.67787970     0.12300
H1121       H  0.90773624  0.28158484  0.72641349     0.12300
H1122       H  0.96479207  0.19916716  0.64961137     0.12300
C1123       C  0.61026626  0.21637439  0.63884613    -0.13900
C1124       C  0.63642539  0.24643850  0.63733725     0.08300
C1125       C  0.63538435  0.27611823  0.66639157    -0.13900
C1126       C  0.60661622  0.27721251  0.69513107    -0.13900
C1127       C  0.57895216  0.24802254  0.69555541     0.08300
C1128       C  0.58235861  0.21669090  0.66827348    -0.13900
H1129       H  0.61126866  0.19285934  0.61703480     0.12300
H1130       H  0.65596556  0.29925407  0.66576147     0.12300
H1131       H  0.60609777  0.30136389  0.71590233     0.12300
H1132       H  0.56195727  0.19338297  0.66836211     0.12300
C1133       C  0.77533012  0.08565232  0.63363006    -0.13900
C1134       C  0.75715746  0.12153424  0.63742061     0.08300
C1135       C  0.73860573  0.13012667  0.67395923    -0.13900
C1136       C  0.73586541  0.10237963  0.70477945    -0.13900
C1137       C  0.75182799  0.06531939  0.70004325     0.08300
C1138       C  0.77344215  0.05822601  0.66508322    -0.13900
H1139       H  0.79102387  0.07884618  0.60638927     0.12300
H1140       H  0.72504527  0.15793896  0.67820977     0.12300
H1141       H  0.72063904  0.10992774  0.73207728     0.12300
H1142       H  0.78816280  0.03128817  0.66122869     0.12300
C1143       C  0.74650389  0.36522046  0.67668588    -0.13900
C1144       C  0.75835514  0.37574508  0.63737019     0.08300
C1145       C  0.76813482  0.41450525  0.62975416    -0.13900
C1146       C  0.76489401  0.44233764  0.66035871    -0.13900
C1147       C  0.75157258  0.43219295  0.69900646     0.08300
C1148       C  0.74298310  0.39320309  0.70711553    -0.13900
H1149       H  0.73874631  0.33557212  0.68364131     0.12300
H1150       H  0.77755582  0.42351864  0.59990238     0.12300
H1151       H  0.77094158  0.47202579  0.65296793     0.12300
H1152       H  0.73282144  0.38450750  0.73678942     0.12300
C1153       C  0.90730518  0.09785575  0.49576879    -0.13800
C1154       C  0.88199514  0.12119954  0.49591943    -0.15400
C1155       C  0.62910427  0.12278703  0.49928218    -0.13800
C1156       C  0.60345828  0.09969406  0.49928908    -0.15400
C1157       C  0.63101936  0.37626912  0.50176578    -0.13800
C1158       C  0.60532569  0.39929735  0.50200679    -0.15400
C1159       C  0.88387798  0.37420904  0.49804961    -0.13800
C1160       C  0.90914314  0.39759445  0.49792673    -0.15400
C1161       C  0.60508789  0.22026255  0.36585762    -0.13900
C1162       C  0.63154322  0.25013882  0.36604921     0.08300
C1163       C  0.63064263  0.27862128  0.33566350    -0.13900
C1164       C  0.60202369  0.27859842  0.30658568    -0.13900
C1165       C  0.57433353  0.24943144  0.30706495     0.08300
C1166       C  0.57735681  0.21937178  0.33603773    -0.13900
H1167       H  0.60603456  0.19754364  0.38865907     0.12300
H1168       H  0.65150000  0.30148555  0.33516517     0.12300
H1169       H  0.60195689  0.30165181  0.28442308     0.12300
H1170       H  0.55700480  0.19602554  0.33668682     0.12300
C1171       C  0.90650218  0.21519096  0.36723381    -0.13900
C1172       C  0.87660096  0.24078277  0.36097702     0.08300
C1173       C  0.87498810  0.26276185  0.32487891    -0.13900
C1174       C  0.90491360  0.26178642  0.29728495    -0.13900
C1175       C  0.93622805  0.23849234  0.30552039     0.08300
C1176       C  0.93578028  0.21365812  0.33949091    -0.13900
H1177       H  0.90770994  0.19713576  0.39422410     0.12300
H1178       H  0.85176324  0.28231901  0.31929103     0.12300
H1179       H  0.90478620  0.28108366  0.27125379     0.12300
H1180       H  0.95932771  0.19472064  0.34590701     0.12300
C1181       C  0.75422049  0.41856987  0.37481040    -0.13900
C1182       C  0.75991082  0.37932352  0.36495521     0.08300
C1183       C  0.76460852  0.36902712  0.32382655    -0.13900
C1184       C  0.76187056  0.39707097  0.29322151    -0.13900
C1185       C  0.75485678  0.43584001  0.30324876     0.08300
C1186       C  0.75138722  0.44647938  0.34415137    -0.13900
H1187       H  0.75026458  0.42753400  0.40607033     0.12300
H1188       H  0.76933610  0.33914146  0.31515089     0.12300
H1189       H  0.76408728  0.38838398  0.26165563     0.12300
H1190       H  0.74424941  0.47590684  0.35231031     0.12300
C1191       C  0.77080654  0.08495495  0.36794260    -0.13900
C1192       C  0.75569365  0.12215302  0.36195338     0.08300
C1193       C  0.73993580  0.13144424  0.32391750    -0.13900
C1194       C  0.73731464  0.10345367  0.29340914    -0.13900
C1195       C  0.75091244  0.06572708  0.30002711     0.08300
C1196       C  0.76906741  0.05725131  0.33695140    -0.13900
H1197       H  0.78386020  0.07723715  0.39662610     0.12300
H1198       H  0.72845691  0.16001822  0.31815971     0.12300
H1199       H  0.72409342  0.11118706  0.26482388     0.12300
H1200       H  0.78081789  0.02887997  0.34257322     0.12300
O1201       O  0.75432302  0.68721821  0.38429066    -0.87000
O1202       O  0.75689433  0.68633177  0.61495508    -0.87200
O1203       O  0.81829546  0.63821306  0.49731217    -0.88900
O1204       O  0.69334355  0.63879606  0.49931690    -0.87600
O1205       O  0.64869918  0.68700090  0.49972886    -0.87200
O1206       O  0.86372710  0.68566579  0.49685594    -0.88600
O1207       O  0.75817982  0.63814929  0.56679570    -0.87100
O1208       O  0.75733823  0.63872741  0.43219263    -0.86600
Zr1209     Zr  0.75611558  0.66929722  0.49934323     2.84300
O1210       O  0.71909450  0.70897740  0.54096477    -1.08600
O1211       O  0.79315328  0.70947298  0.45812690    -1.09300
C1212       C  0.75595239  0.65120231  0.39504542     1.06100
C1213       C  0.75761534  0.65042385  0.60407775     1.06000
C1214       C  0.85280597  0.65002832  0.49663107     1.09000
C1215       C  0.65895658  0.65114175  0.49943065     1.06800
H1216       H  0.81056826  0.69235873  0.55656906     0.32300
O1217       O  0.79482277  0.70855237  0.53973947    -1.29600
H1218       H  0.70209209  0.69396540  0.44189446     0.32000
O1219       O  0.71803164  0.70967515  0.45898936    -1.31200
O1220       O  0.75804607  0.81069158  0.61514222    -0.87000
O1221       O  0.75782602  0.81335403  0.38541747    -0.88500
O1222       O  0.86224011  0.74549158  0.56579850    -0.87100
O1223       O  0.65249286  0.74573046  0.56801010    -0.87100
O1224       O  0.64982761  0.74914846  0.43480101    -0.86900
O1225       O  0.85969517  0.74441411  0.43029182    -0.86700
O1226       O  0.82002188  0.85813127  0.49955704    -0.87000
O1227       O  0.69504830  0.85940234  0.50057937    -0.86500
O1228       O  0.86470678  0.80996019  0.49793289    -0.87600
O1229       O  0.64976195  0.81178206  0.50181853    -0.86700
O1230       O  0.81749244  0.74859613  0.61575050    -0.87100
O1231       O  0.81371450  0.74794157  0.38137685    -0.86800
O1232       O  0.69477565  0.75239513  0.38497550    -0.86500
O1233       O  0.69893238  0.74912616  0.61643258    -0.86900
O1234       O  0.75968144  0.85897053  0.56714372    -0.87200
O1235       O  0.75857200  0.86054875  0.43450903    -0.88500
Zr1236     Zr  0.75787479  0.74856598  0.58068510     2.83100
Zr1237     Zr  0.75527845  0.74991719  0.41829122     2.83500
Zr1238     Zr  0.83217535  0.74799884  0.49850820     2.84100
Zr1239     Zr  0.68117640  0.74907052  0.50074613     2.83400
Zr1240     Zr  0.75737976  0.82804510  0.50030408     2.84200
O1241       O  0.71818142  0.78931342  0.45962138    -1.09100
O1242       O  0.79585962  0.78803257  0.54027872    -1.08600
C1243       C  0.75899411  0.84664414  0.60434122     1.06100
C1244       C  0.75886347  0.84913319  0.39707124     1.08700
C1245       C  0.85165404  0.74629436  0.60349323     1.06200
C1246       C  0.66444341  0.74706770  0.60513292     1.06600
C1247       C  0.66059280  0.75083648  0.39736296     1.06200
C1248       C  0.84810391  0.74486865  0.39289834     1.05700
C1249       C  0.85433261  0.84577904  0.49855569     1.06200
C1250       C  0.66050717  0.84751826  0.50134260     1.05700
H1251       H  0.81020198  0.80415818  0.44132027     0.32300
O1252       O  0.79441198  0.78844141  0.45853940    -1.30200
H1253       H  0.70408984  0.80446495  0.55866196     0.32400
O1254       O  0.71942538  0.78858143  0.54126821    -1.31600
N1255       N  0.50567963  0.55841496  0.49464795    -0.37100
N1256       N  0.56436490  0.99911304  0.50064612    -0.57700
N1257       N  0.50669750  0.93874387  0.50321682    -0.37100
N1258       N  0.94789333  0.99809164  0.49704898    -0.57700
C1259       C  0.53614349  0.58158070  0.49968587     0.26400
C1260       C  0.97466293  0.58098737  0.49810577     0.26400
C1261       C  0.53770566  0.91606344  0.50029324     0.26400
C1262       C  0.97622536  0.91559121  0.49837546     0.26400
C1263       C  0.58672411  0.53079057  0.49921046     0.35100
C1264       C  0.58731314  0.96789223  0.50211571     0.35100
C1265       C  0.92496790  0.52928294  0.49537724     0.35100
C1266       C  0.92555662  0.96642073  0.49798380     0.35100
C1267       C  0.52427310  0.61948611  0.50547926    -0.22400
C1268       C  0.98565598  0.61912400  0.50446228    -0.22400
C1269       C  0.52666803  0.87784751  0.49461807    -0.22400
C1270       C  0.98805421  0.87755433  0.49335603    -0.22400
C1271       C  0.62408388  0.51955690  0.49980146    -0.23500
C1272       C  0.62445422  0.97989120  0.50173730    -0.23500
C1273       C  0.88779461  0.51730814  0.49516716    -0.23500
C1274       C  0.88816296  0.97761639  0.49689039    -0.23500
C1275       C  0.57439600  0.56983395  0.49895640    -0.18800
C1276       C  0.93668074  0.56850275  0.49579460    -0.18800
C1277       C  0.93800958  0.92744207  0.49846823    -0.18800
C1278       C  0.57572293  0.92859364  0.50213571    -0.18800
H1279       H  0.54162902  0.64483038  0.51036114     0.14100
H1280       H  0.96771121  0.64414757  0.50843172     0.14100
H1281       H  0.54458356  0.85273742  0.49114321     0.14100
H1282       H  0.97068330  0.85216654  0.48876691     0.14100
H1283       H  0.64865748  0.53798784  0.49919008     0.12400
H1284       H  0.64936255  0.96196332  0.50239254     0.12400
H1285       H  0.86289806  0.53525825  0.49428716     0.12400
H1286       H  0.86359631  0.95915482  0.49710061     0.12400
H1287       H  0.50610981  0.52950961  0.48620329     0.25600
H1288       H  0.50623741  0.96782422  0.51091729     0.25600
O1289       O  0.99142921  0.93622631  0.88382519    -0.87000
O1290       O  0.98958426  0.93377972  0.11414453    -0.87200
O1291       O  0.55339041  0.88659559  0.99927042    -0.88900
O1292       O  0.92864000  0.88716576  0.99851395    -0.87600
O1293       O  0.88389875  0.93523822  0.00024238    -0.91200
O1294       O  0.59869633  0.93415226  0.00143935    -0.88600
O1295       O  0.98938752  0.88609135  0.06560211    -0.87100
O1296       O  0.99087583  0.88782758  0.93180517    -0.86600
Zr1297     Zr  0.99117524  0.91793963  0.99920689     2.84300
O1298       O  0.95344021  0.95733909  0.04035936    -1.08600
O1299       O  0.52932088  0.95802524  0.95923044    -1.09300
C1300       C  0.99097884  0.90021747  0.89460298     1.06100
C1301       C  0.98895601  0.89793612  0.10294544     1.06000
C1302       C  0.58791892  0.89842672  0.00042175     1.09000
C1303       C  0.89424726  0.89940986  0.99929984     1.06800
H1304       H  0.54484636  0.94067992  0.05806978     0.32300
O1305       O  0.52936765  0.95689590  0.04081796    -1.29600
H1306       H  0.93790278  0.94235821  0.94127819     0.32000
O1307       O  0.95355812  0.95813137  0.95860607    -1.31200
O1308       O  0.99300158  0.55922841  0.11515200    -0.87000
O1309       O  0.99360525  0.56074167  0.88531223    -0.88500
O1310       O  0.59663129  0.99873697  0.06783282    -0.87100
O1311       O  0.88688437  0.99940207  0.06705794    -0.87100
O1312       O  0.88646932  0.99600392  0.93277780    -0.86900
O1313       O  0.59764551  0.99309042  0.93445752    -0.86700
O1314       O  0.55443990  0.60739651  0.00160144    -0.87000
O1315       O  0.92961428  0.60767115  0.99835656    -0.86500
O1316       O  0.59929929  0.55937418  0.00071101    -0.87600
O1317       O  0.88445990  0.55993932  0.99749526    -0.86700
O1318       O  0.55075657  0.99516935  0.11658660    -0.87100
O1319       O  0.55175353  0.99646417  0.88538512    -0.86800
O1320       O  0.93193674  0.99955217  0.88358043    -0.86500
O1321       O  0.93237729  0.99686525  0.11654813    -0.86900
O1322       O  0.99034410  0.60761824  0.06713063    -0.87200
O1323       O  0.99130282  0.60863191  0.93372590    -0.88500
Zr1324     Zr  0.99151407  0.99665097  0.08100238     2.83100
Zr1325     Zr  0.99168872  0.99813993  0.91891939     2.83500
Zr1326     Zr  0.56726110  0.99690185  0.00067038     2.84100
Zr1327     Zr  0.91609663  0.99750845  0.99973389     2.83400
Zr1328     Zr  0.99186633  0.57670819  0.00023426     2.84200
O1329       O  0.95366365  0.53753226  0.95913240    -1.09100
O1330       O  0.52960613  0.53666292  0.04122166    -1.08600
C1331       C  0.99178532  0.59521475  0.10427832     1.06100
C1332       C  0.99271788  0.59656182  0.89651357     1.08700
C1333       C  0.58513178  0.99718100  0.10505641     1.06200
C1334       C  0.89805242  0.99888513  0.10458850     1.06600
C1335       C  0.89758461  0.99726134  0.89537894     1.06200
C1336       C  0.58610775  0.99400318  0.89717459     1.05700
C1337       C  0.58886149  0.59519941  0.00149477     1.06200
C1338       C  0.89516062  0.59567466  0.99749891     1.05700
H1339       H  0.54598255  0.55307162  0.94263948     0.32300
O1340       O  0.53005873  0.53719321  0.95961539    -1.30200
H1341       H  0.93826467  0.55286987  0.05778013     0.32400
O1342       O  0.95386238  0.53686345  0.04074094    -1.31600
N1343       N  0.74236702  0.68702661  0.00539757    -0.37100
N1344       N  0.79976157  0.74742817  0.99955017    -0.57700
N1345       N  0.74124024  0.80700506  0.00348381    -0.37100
N1346       N  0.68378338  0.74670225  0.00413060    -0.57700
C1347       C  0.77298154  0.66487450  0.99770027     0.26400
C1348       C  0.71154815  0.66448793  0.99999211     0.26400
C1349       C  0.77166067  0.82939849  0.99557537     0.26400
C1350       C  0.71017371  0.82888386  0.99677137     0.26400
C1351       C  0.82251478  0.71619160  0.00320801     0.35100
C1352       C  0.82193542  0.77909222  0.00329367     0.35100
C1353       C  0.66194335  0.71510875  0.01000436     0.35100
C1354       C  0.66132095  0.77801213  0.00876726     0.35100
C1355       C  0.76147191  0.62748195  0.98836789    -0.22400
C1356       C  0.72283011  0.62725122  0.98976524    -0.22400
C1357       C  0.75976318  0.86619948  0.98433277    -0.22400
C1358       C  0.72107691  0.86585249  0.98498383    -0.22400
C1359       C  0.85937309  0.72810964  0.00852412    -0.23500
C1360       C  0.85899967  0.76784645  0.00865666    -0.23500
C1361       C  0.62539480  0.72645414  0.01817579    -0.23500
C1362       C  0.62499579  0.76620394  0.01736722    -0.23500
C1363       C  0.81101427  0.67704492  0.99994639    -0.18800
C1364       C  0.67360100  0.67617565  0.00511625    -0.18800
C1365       C  0.67237902  0.81699694  0.00268954    -0.18800
C1366       C  0.80982228  0.81803446  0.99967170    -0.18800
H1367       H  0.77907473  0.60288719  0.98109968     0.14100
H1368       H  0.70506335  0.60242454  0.98381776     0.14100
H1369       H  0.77715864  0.89080129  0.97642143     0.14100
H1370       H  0.70304011  0.89016947  0.97776061     0.14100
H1371       H  0.88405128  0.71008543  0.01185589     0.12400
H1372       H  0.88337140  0.78631724  0.01199090     0.12400
H1373       H  0.60133354  0.70801700  0.02359673     0.12400
H1374       H  0.60058124  0.78429636  0.02204094     0.12400
H1375       H  0.74260104  0.71489107  0.01713307     0.25600
H1376       H  0.74181644  0.77971757  0.01671993     0.25600
C1377       C  0.53981720  0.75003108  0.27991662     0.86000
C1378       C  0.53780115  0.71501046  0.25121858    -0.54300
C1379       C  0.00534994  0.71263240  0.22886932     0.08900
C1380       C  0.97773753  0.74607755  0.23750705     0.19800
C1381       C  0.53314549  0.78538952  0.25227776    -0.55000
C1382       C  0.00087847  0.78324953  0.22992468     0.09000
C1383       C  0.00439156  0.74760712  0.30558098    -0.54500
C1384       C  0.97201812  0.74450199  0.28395967     0.09600
H1385       H  0.56067467  0.69441430  0.24848957     0.14100
H1386       H  0.95110274  0.74469107  0.22003593    -0.00200
H1387       H  0.55214961  0.80967545  0.24904400     0.14400
H1388       H  0.00495500  0.74774175  0.33866395     0.14200
C1389       C  0.70672055  0.99690282  0.22120577     0.86000
C1390       C  0.71301021  0.96225103  0.24994301    -0.54300
C1391       C  0.74596329  0.96415777  0.27114398     0.08900
C1392       C  0.76994358  0.00024557  0.26167462     0.19800
C1393       C  0.71047258  0.53273502  0.24851215    -0.55000
C1394       C  0.74341221  0.53464927  0.26988905     0.09000
C1395       C  0.74161458  0.99730743  0.19447467    -0.54500
C1396       C  0.77462941  0.00005654  0.21505779     0.09600
H1397       H  0.69343861  0.93863156  0.25451269     0.14100
H1398       H  0.79689320  0.00151994  0.27862823    -0.00200
H1399       H  0.68827855  0.55411470  0.25142432     0.14400
H1400       H  0.74021199  0.99627352  0.16144018     0.14200
C1401       C  0.54377862  0.74986257  0.72136801     0.86000
C1402       C  0.53710595  0.78538553  0.74840352    -0.54300
C1403       C  0.00405404  0.78426056  0.76941334     0.08900
C1404       C  0.98040854  0.74735885  0.76126613     0.19800
C1405       C  0.54039047  0.71528417  0.75029230    -0.55000
C1406       C  0.00728710  0.71333891  0.77127499     0.09000
C1407       C  0.00908058  0.74805977  0.69432743    -0.54500
C1408       C  0.97593700  0.74584163  0.71451694     0.09600
H1409       H  0.55680208  0.80899369  0.75220202     0.14100
H1410       H  0.95327011  0.74654960  0.77765402    -0.00200
H1411       H  0.56317804  0.69476818  0.75427890     0.14400
H1412       H  0.01078236  0.74825528  0.66130443     0.14200
C1413       C  0.70549512  0.99734412  0.77914883     0.86000
C1414       C  0.71010565  0.53283398  0.75112048    -0.54300
C1415       C  0.74321611  0.53371164  0.72986629     0.08900
C1416       C  0.76847929  0.99801648  0.73842948     0.19800
C1417       C  0.71048878  0.96237476  0.75109455    -0.55000
C1418       C  0.74314612  0.96261174  0.72944713     0.09000
C1419       C  0.74051098  0.99817573  0.80572099    -0.54500
C1420       C  0.77341811  0.99725743  0.78508808     0.09600
H1421       H  0.68904967  0.55508348  0.74744180     0.14100
H1422       H  0.79549024  0.99769841  0.72176176    -0.00200
H1423       H  0.68941069  0.93979780  0.74797194     0.14400
H1424       H  0.73932788  0.99847757  0.83877980     0.14200
C1425       C  0.61383018  0.97040733  0.16820842    -0.13900
C1426       C  0.61358362  0.99821792  0.13703668     0.08300
C1427       C  0.64080878  0.52728238  0.13637895    -0.13900
C1428       C  0.66892536  0.52778053  0.16569102    -0.13900
C1429       C  0.67157143  0.99809438  0.19508372     0.08300
C1430       C  0.64289847  0.96999555  0.19686224    -0.13900
H1431       H  0.59235264  0.94818499  0.16940760     0.12300
H1432       H  0.64038335  0.54950887  0.11303692     0.12300
H1433       H  0.68999339  0.55039265  0.16415670     0.12300
H1434       H  0.64275660  0.94735544  0.21952426     0.12300
C1435       C  0.87121782  0.98054708  0.17255513    -0.13900
C1436       C  0.86921344  0.00215413  0.13621611     0.08300
C1437       C  0.83902503  0.02731030  0.12982710    -0.13900
C1438       C  0.81002276  0.02906682  0.15786243    -0.13900
C1439       C  0.81003153  0.00486013  0.19231598     0.08300
C1440       C  0.84149581  0.98168530  0.20045918    -0.13900
H1441       H  0.89473566  0.96139243  0.17826903     0.12300
H1442       H  0.83754480  0.04514715  0.10269450     0.12300
H1443       H  0.78644765  0.04797741  0.15151460     0.12300
H1444       H  0.84204384  0.96287706  0.22687582     0.12300
C1445       C  0.99027257  0.87973768  0.17689449    -0.13900
C1446       C  0.98828635  0.86840539  0.13575897     0.08300
C1447       C  0.48721582  0.82865257  0.12648026    -0.13900
C1448       C  0.48946054  0.80097660  0.15744896    -0.13900
C1449       C  0.99237825  0.81235324  0.19822485     0.08300
C1450       C  0.99246111  0.85195640  0.20778103    -0.13900
H1451       H  0.99119862  0.91008826  0.18527674     0.12300
H1452       H  0.48595096  0.81884100  0.09522285     0.12300
H1453       H  0.49138201  0.77082557  0.14920767     0.12300
H1454       H  0.99529462  0.86134613  0.23908474     0.12300
C1455       C  0.97496991  0.66039520  0.13247776    -0.13900
C1456       C  0.99270119  0.62434022  0.13716747     0.08300
C1457       C  0.51179091  0.61628361  0.17362933    -0.13900
C1458       C  0.51495778  0.64452836  0.20382819    -0.13900
C1459       C  0.99856965  0.68129935  0.19856362     0.08300
C1460       C  0.97715624  0.68823729  0.16329522    -0.13900
H1461       H  0.95927720  0.66698222  0.10505551     0.12300
H1462       H  0.52532357  0.58849948  0.17829635     0.12300
H1463       H  0.53044961  0.63751783  0.23123151     0.12300
H1464       H  0.96264924  0.71532703  0.15881345     0.12300
C1465       C  0.61728589  0.86953966  0.00083302    -0.13800
C1466       C  0.64276715  0.84625753  0.00146948    -0.15400
C1467       C  0.86449199  0.87096670  0.99904687    -0.13800
C1468       C  0.83886260  0.84786536  0.99901522    -0.15400
C1469       C  0.84041446  0.64772086  0.99796976    -0.13800
C1470       C  0.86578257  0.62440358  0.99714122    -0.15400
C1471       C  0.61853500  0.62372200  0.00245106    -0.13800
C1472       C  0.64420719  0.64674273  0.00363171    -0.15400
C1473       C  0.83872521  0.96878803  0.86946695    -0.13900
C1474       C  0.86853197  0.99458212  0.86379620     0.08300
C1475       C  0.86976136  0.01761401  0.82844031    -0.13900
C1476       C  0.83982433  0.01689422  0.80062770    -0.13900
C1477       C  0.80892405  0.99272347  0.80786416     0.08300
C1478       C  0.80952895  0.96744822  0.84148838    -0.13900
H1479       H  0.83774179  0.95005080  0.89595231     0.12300
H1480       H  0.89287287  0.03744240  0.82345158     0.12300
H1481       H  0.83980545  0.03662717  0.77496291     0.12300
H1482       H  0.78634104  0.94786791  0.84720427     0.12300
C1483       C  0.61288444  0.02003822  0.83343239    -0.13900
C1484       C  0.61429733  0.99286745  0.86511186     0.08300
C1485       C  0.64244196  0.96470775  0.86565392    -0.13900
C1486       C  0.66980879  0.96471291  0.83551298    -0.13900
C1487       C  0.67075648  0.99418355  0.80563818     0.08300
C1488       C  0.64103194  0.02099722  0.80408598    -0.13900
H1489       H  0.59069256  0.04148491  0.83229597     0.12300
H1490       H  0.64329507  0.94288954  0.88940737     0.12300
H1491       H  0.69170825  0.94295775  0.83688423     0.12300
H1492       H  0.63928416  0.04319060  0.78105655     0.12300
C1493       C  0.47390152  0.66043250  0.86633782    -0.13900
C1494       C  0.99419240  0.62569797  0.86376992     0.08300
C1495       C  0.01575132  0.61838367  0.82902958    -0.13900
C1496       C  0.01853613  0.64609870  0.79831883    -0.13900
C1497       C  0.99986250  0.68195209  0.80154995     0.08300
C1498       C  0.47615726  0.68799427  0.83510752    -0.13900
H1499       H  0.45617767  0.66613583  0.89236901     0.12300
H1500       H  0.03121650  0.59149564  0.82601638     0.12300
H1501       H  0.03563501  0.63929020  0.77215573     0.12300
H1502       H  0.45992074  0.71416096  0.83799651     0.12300
C1503       C  0.00075347  0.88160786  0.82173209    -0.13900
C1504       C  0.99072080  0.87102954  0.86159459     0.08300
C1505       C  0.48117121  0.83222463  0.86961452    -0.13900
C1506       C  0.48315553  0.80435122  0.83886764    -0.13900
C1507       C  0.99488480  0.81460794  0.79964852     0.08300
C1508       C  0.00281288  0.85367955  0.79112063    -0.13900
H1509       H  0.00819273  0.91126074  0.81440897     0.12300
H1510       H  0.47297112  0.82319588  0.89988288     0.12300
H1511       H  0.47763474  0.77454238  0.84651780     0.12300
H1512       H  0.01178312  0.86240565  0.76100201     0.12300
C1513       C  0.91178928  0.71915299  0.62816714    -0.13900
C1514       C  0.88096725  0.74330324  0.63499806     0.08300
C1515       C  0.87872555  0.76417787  0.67175422    -0.13900
C1516       C  0.90864455  0.76331416  0.69965572    -0.13900
C1517       C  0.94059524  0.74102729  0.69123038     0.08300
C1518       C  0.94094904  0.71755219  0.65624548    -0.13900
H1519       H  0.91356975  0.70184719  0.60074325     0.12300
H1520       H  0.85476936  0.78255983  0.67787962     0.12300
H1521       H  0.90773629  0.78158506  0.72641329     0.12300
H1522       H  0.96479197  0.69916717  0.64961139     0.12300
C1523       C  0.61026629  0.71637417  0.63884620    -0.13900
C1524       C  0.63642529  0.74643836  0.63733715     0.08300
C1525       C  0.63538421  0.77611818  0.66639138    -0.13900
C1526       C  0.60661613  0.77721248  0.69513105    -0.13900
C1527       C  0.57895218  0.74802226  0.69555544     0.08300
C1528       C  0.58235867  0.71669051  0.66827356    -0.13900
H1529       H  0.61126881  0.69285908  0.61703490     0.12300
H1530       H  0.65596539  0.79925402  0.66576104     0.12300
H1531       H  0.60609765  0.80136391  0.71590220     0.12300
H1532       H  0.56195743  0.69338244  0.66836225     0.12300
C1533       C  0.77533025  0.58565240  0.63363031    -0.13900
C1534       C  0.75715735  0.62153420  0.63742067     0.08300
C1535       C  0.73860537  0.63012653  0.67395917    -0.13900
C1536       C  0.73586504  0.60237948  0.70477941    -0.13900
C1537       C  0.75182782  0.56531933  0.70004333     0.08300
C1538       C  0.77344226  0.55822612  0.66508343    -0.13900
H1539       H  0.79102424  0.57884633  0.60638966     0.12300
H1540       H  0.72504473  0.65793873  0.67820960     0.12300
H1541       H  0.72063850  0.60992752  0.73207712     0.12300
H1542       H  0.78816314  0.53128837  0.66122898     0.12300
C1543       C  0.74650322  0.86522041  0.67668593    -0.13900
C1544       C  0.75835505  0.87574487  0.63737040     0.08300
C1545       C  0.76813526  0.91450492  0.62975459    -0.13900
C1546       C  0.76489454  0.94233742  0.66035907    -0.13900
C1547       C  0.75157253  0.93219287  0.69900660     0.08300
C1548       C  0.74298245  0.89320306  0.70711557    -0.13900
H1549       H  0.73874521  0.83557218  0.68364123     0.12300
H1550       H  0.77755677  0.92351817  0.59990293     0.12300
H1551       H  0.77094272  0.97202544  0.65296838     0.12300
H1552       H  0.73282037  0.88450757  0.73678932     0.12300
C1553       C  0.90730520  0.59785581  0.49576879    -0.13800
C1554       C  0.88199519  0.62119961  0.49591942    -0.15400
C1555       C  0.62910441  0.62278687  0.49928194    -0.13800
C1556       C  0.60345839  0.59969394  0.49928878    -0.15400
C1557       C  0.63101928  0.87626921  0.50176576    -0.13800
C1558       C  0.60532559  0.89929741  0.50200686    -0.15400
C1559       C  0.88387796  0.87420902  0.49804996    -0.13800
C1560       C  0.90914317  0.89759435  0.49792697    -0.15400
C1561       C  0.60508779  0.72026252  0.36585777    -0.13900
C1562       C  0.63154321  0.75013868  0.36604916     0.08300
C1563       C  0.63064269  0.77862102  0.33566329    -0.13900
C1564       C  0.60202370  0.77859834  0.30658554    -0.13900
C1565       C  0.57433347  0.74943146  0.30706497     0.08300
C1566       C  0.57735673  0.71937179  0.33603782    -0.13900
H1567       H  0.60603435  0.69754376  0.38865938     0.12300
H1568       H  0.65150021  0.80148515  0.33516483     0.12300
H1569       H  0.60195695  0.80165173  0.28442292     0.12300
H1570       H  0.55700462  0.69602564  0.33668695     0.12300
C1571       C  0.90650218  0.71519092  0.36723385    -0.13900
C1572       C  0.87660099  0.74078283  0.36097704     0.08300
C1573       C  0.87498819  0.76276189  0.32487892    -0.13900
C1574       C  0.90491363  0.76178636  0.29728489    -0.13900
C1575       C  0.93622802  0.73849223  0.30552032     0.08300
C1576       C  0.93578021  0.71365798  0.33949085    -0.13900
H1577       H  0.90770997  0.69713575  0.39422415     0.12300
H1578       H  0.85176337  0.78231910  0.31929109     0.12300
H1579       H  0.90478619  0.78108356  0.27125368     0.12300
H1580       H  0.95932759  0.69472042  0.34590685     0.12300
C1581       C  0.75422036  0.91856992  0.37481031    -0.13900
C1582       C  0.75991077  0.87932355  0.36495516     0.08300
C1583       C  0.76460857  0.86902714  0.32382652    -0.13900
C1584       C  0.76187055  0.89707087  0.29322139    -0.13900
C1585       C  0.75485672  0.93583992  0.30324860     0.08300
C1586       C  0.75138713  0.94647939  0.34415125    -0.13900
H1587       H  0.75026440  0.92753404  0.40607022     0.12300
H1588       H  0.76933626  0.83914149  0.31515093     0.12300
H1589       H  0.76408730  0.88838379  0.26165552     0.12300
H1590       H  0.74424934  0.97590685  0.35231015     0.12300
C1591       C  0.77080659  0.58495501  0.36794261    -0.13900
C1592       C  0.75569379  0.62215313  0.36195323     0.08300
C1593       C  0.73993604  0.63144436  0.32391725    -0.13900
C1594       C  0.73731473  0.60345382  0.29340888    -0.13900
C1595       C  0.75091245  0.56572719  0.30002700     0.08300
C1596       C  0.76906747  0.55725136  0.33695134    -0.13900
H1597       H  0.78386007  0.57723720  0.39662621     0.12300
H1598       H  0.72845727  0.66001839  0.31815946     0.12300
H1599       H  0.72409354  0.61118724  0.26482360     0.12300
H1600       H  0.78081787  0.52887997  0.34257308     0.12300
loop_ 
_geom_bond_atom_site_label_1 
_geom_bond_atom_site_label_2 
_geom_bond_distance 
_geom_bond_site_symmetry_2 
_ccdc_geom_bond_type 
O1          Zr37   2.435       .  S
O1           C12   1.292       .  A
O2          Zr36   2.422       .  S
O2           C13   1.289       .  A
O3           Zr9   2.464       .  S
O3           C14   1.296       .  A
O4           Zr9   2.472       .  S
O4           C15   1.298       .  A
O5          Zr39   2.433       .  S
O5           C15   1.289       .  A
O6          Zr38   2.427       .  S
O6           C14   1.289       .  A
O7           Zr9   2.463       .  S
O7           C13   1.297       .  A
O8           Zr9   2.448       .  S
O8           C12   1.295       .  A
Zr9          O10   2.345       .  S
Zr9          O11   2.345       .  S
Zr9          O19   2.351       .  S
Zr9          O17   2.343       .  S
O10         Zr36   2.339       .  S
O10         Zr39   2.339       .  S
O11         Zr37   2.338       .  S
O11         Zr38   2.335       .  S
C12         C392   1.480       .  S
C13         C334   1.480       .  S
C14         C354   1.440       .  S
C15         C355   1.445       .  S
H16          O17   0.965       .  S
O17         Zr36   2.338       .  S
O17         Zr38   2.337       .  S
H18          O19   0.965       .  S
O19         Zr37   2.341       .  S
O19         Zr39   2.339       .  S
O20         Zr36   2.424       .  S
O20          C43   1.289       .  A
O21         Zr37   2.440       .  S
O21          C44   1.293       .  A
O22         Zr38   2.456       .  S
O22          C45   1.296       .  A
O23         Zr39   2.441       .  S
O23          C46   1.292       .  A
O24         Zr39   2.436       .  S
O24          C47   1.291       .  A
O25         Zr38   2.453       .  S
O25          C48   1.296       .  A
O26         Zr40   2.462       .  S
O26          C49   1.296       .  A
O27         Zr40   2.471       .  S
O27          C50   1.298       .  A
O28         Zr38   2.430       .  S
O28          C49   1.289       .  A
O29         Zr39   2.436       .  S
O29          C50   1.290       .  A
O30         Zr36   2.415       .  S
O30          C45   1.286       .  A
O31         Zr37   2.415       .  S
O31          C48   1.286       .  A
O32         Zr37   2.418       .  S
O32          C47   1.287       .  A
O33         Zr36   2.410       .  S
O33          C46   1.285       .  A
O34         Zr40   2.444       .  S
O34          C43   1.294       .  A
O35         Zr40   2.435       .  S
O35          C44   1.292       .  A
Zr36         O42   2.335       .  S
Zr36         O54   2.334       .  S
Zr37         O41   2.336       .  S
Zr37         O52   2.335       .  S
Zr38         O42   2.341       .  S
Zr38         O52   2.338       .  S
Zr39         O41   2.344       .  S
Zr39         O54   2.341       .  S
Zr40         O41   2.349       .  S
Zr40         O42   2.345       .  S
Zr40         O54   2.345       .  S
Zr40         O52   2.347       .  S
C43         C344   1.479       .  S
C44         C382   1.482       .  S
C45         C314   1.473       .  S
C46         C324   1.457       .  S
C47         C362   1.458       .  S
C48         C372   1.469       .  S
C49         C359   1.439       .  S
C50         C357   1.445       .  S
H51          O52   0.965       .  S
H53          O54   0.964       .  S
N55          H87   1.035       .  S
N55          C59   1.358       .  A
N55         C860   1.357   1_455  A
N56          C64   1.353       .  A
N56         C463   1.353       .  A
N57          H88   1.035       .  S
N57          C61   1.358       .  A
N57         C862   1.357   1_455  A
N58          C66   1.352       .  A
N58         C465   1.352       .  A
C59          C67   1.387       .  A
C59          C75   1.423       .  A
C60         N855   1.357       .  A
C60          C76   1.422       .  A
C60          C68   1.388       .  A
C61          C69   1.388       .  A
C61          C78   1.423       .  A
C62         N857   1.357       .  A
C62          C77   1.422       .  A
C62          C70   1.388       .  A
C63         N456   1.353   1_545  A
C63          C75   1.416       .  A
C63          C71   1.387       .  A
C64          C78   1.416       .  A
C64          C72   1.387       .  A
C65         N458   1.352   1_545  A
C65          C73   1.388       .  A
C65          C76   1.415       .  A
C66          C74   1.388       .  A
C66          C77   1.415       .  A
C67         C868   1.377   1_455  A
C67          H79   1.082       .  S
C68         C867   1.377       .  A
C68          H80   1.082       .  S
C69         C870   1.377   1_455  A
C69          H81   1.082       .  S
C70         C869   1.377       .  A
C70          H82   1.082       .  S
C71         C472   1.369   1_545  A
C71          H83   1.082       .  S
C72         C471   1.369       .  A
C72          H84   1.082       .  S
C73         C474   1.370   1_545  A
C73          H85   1.082       .  S
C74         C473   1.370       .  A
C74          H86   1.082       .  S
C75         C356   1.460       .  S
C76         C353   1.457       .  S
C77         C360   1.455       .  S
C78         C358   1.461       .  S
O89        Zr125   2.428       .  S
O89         C100   1.291       .  A
O90        Zr124   2.426       .  S
O90         C101   1.290       .  A
O91        Zr897   2.468   1_455  S
O91         C102   1.297   1_556  A
O92         Zr97   2.469       .  S
O92         C103   1.297       .  A
O93        Zr127   2.434   1_554  S
O93         C103   1.290   1_554  A
O94        Zr126   2.437       .  S
O94         C102   1.291       .  A
O95         Zr97   2.442   1_554  S
O95         C101   1.294       .  A
O96         Zr97   2.448       .  S
O96         C100   1.295       .  A
Zr97        O891   2.468       .  S
Zr97         O98   2.345   1_556  S
Zr97        O107   2.342       .  S
Zr97        O899   2.343       .  S
Zr97        O905   2.350   1_556  S
O98        Zr124   2.336       .  S
O98        Zr127   2.336   1_554  S
O99        Zr126   2.340   1_556  S
O99        Zr897   2.343   1_455  S
O99        Zr925   2.335   1_455  S
C100        C304   1.481       .  S
C101        C246   1.482       .  S
C102        C265   1.445       .  S
C103        C267   1.444       .  S
H104        O105   0.968       .  S
O105       Zr126   2.339       .  S
O105       Zr897   2.350   1_454  S
O105       Zr924   2.337   1_455  S
H106        O107   0.965       .  S
O107       Zr125   2.336       .  S
O107       Zr127   2.339       .  S
O108       Zr524   2.434   1_545  S
O108        C131   1.291       .  A
O109       Zr525   2.424   1_545  S
O109        C132   1.290       .  A
O110       Zr126   2.441       .  S
O110        C133   1.292       .  A
O111       Zr127   2.449   1_554  S
O111        C134   1.295       .  A
O112       Zr127   2.439       .  S
O112        C135   1.293       .  A
O113       Zr126   2.437   1_556  S
O113        C136   1.292       .  A
O114       Zr928   2.469   1_455  S
O114        C137   1.297       .  A
O115       Zr128   2.464   1_556  S
O115        C138   1.296       .  A
O116       Zr526   2.438   1_545  S
O116        C137   1.290       .  A
O117       Zr527   2.431   1_545  S
O117        C138   1.290       .  A
O118       Zr924   2.412   1_455  S
O118        C133   1.286       .  A
O119       Zr925   2.412   1_455  S
O119        C136   1.286       .  A
O120       Zr125   2.424       .  S
O120        C135   1.288       .  A
O121       Zr124   2.413       .  S
O121        C134   1.286       .  A
O122       Zr128   2.445       .  S
O122        C131   1.294       .  A
O123       Zr128   2.446   1_556  S
O123        C132   1.294       .  A
Zr124       O508   2.434       .  S
Zr124       O918   2.412       .  S
Zr124       O905   2.337       .  S
Zr124      O1330   2.337       .  S
Zr124       O542   2.337       .  S
Zr125       O509   2.424       .  S
Zr125       O919   2.412       .  S
Zr125       O899   2.335       .  S
Zr125       O529   2.334       .  S
Zr125      O1340   2.338       .  S
Zr126       O516   2.438       .  S
Zr126       O530   2.340       .  S
Zr126       O540   2.344   1_554  S
Zr127       O517   2.431       .  S
Zr127       O529   2.341       .  S
Zr127       O542   2.337   1_556  S
Zr128       O914   2.469       .  S
Zr128       O129   2.345   1_554  S
Zr128       O142   2.345       .  S
Zr128       O930   2.349       .  S
Zr128       O940   2.347   1_554  S
O129       Zr525   2.334   1_545  S
O129       Zr527   2.341   1_545  S
O130      Zr1324   2.337   1_445  S
O130       Zr526   2.340   1_545  S
O130       Zr928   2.349   1_455  S
C131        C256   1.477       .  S
C132        C294   1.472       .  S
C133        C226   1.459       .  S
C134        C236   1.469       .  S
C135        C274   1.467       .  S
C136        C284   1.459       .  S
C137        C271   1.444       .  S
C138        C270   1.442       .  S
H139        O140   0.966       .  S
O140      Zr1325   2.338   1_445  S
O140       Zr526   2.344   1_546  S
O140       Zr928   2.347   1_456  S
H141        O142   0.964       .  S
O142       Zr524   2.337   1_545  S
O142       Zr527   2.337   1_544  S
N143        H175   1.036       .  S
N143        C148   1.357   1_554  A
N143        C147   1.357   1_554  A
N144        C151   1.353   1_556  A
N144        C152   1.353   1_556  A
N145        H176   1.036       .  S
N145        C150   1.358   1_554  A
N145        C149   1.356   1_554  A
N146        C153   1.353       .  A
N146        C154   1.353       .  A
C147        C155   1.387       .  A
C147        C163   1.421       .  A
C148        C164   1.422   1_556  A
C148        C156   1.388       .  A
C149        C157   1.387       .  A
C149        C166   1.422       .  A
C150        C165   1.422   1_556  A
C150        C158   1.387       .  A
C151        C163   1.414   1_554  A
C151        C159   1.387       .  A
C152        C166   1.415   1_554  A
C152        C160   1.388       .  A
C153        C161   1.388       .  A
C153        C164   1.415       .  A
C154        C162   1.387       .  A
C154        C165   1.415       .  A
C155        C156   1.378       .  A
C155        H167   1.082       .  S
C156        H168   1.082       .  S
C157        C158   1.379       .  A
C157        H169   1.082       .  S
C158        H170   1.082       .  S
C159        C160   1.370       .  A
C159        H171   1.082       .  S
C160        H172   1.082       .  S
C161        C162   1.371       .  A
C161        H173   1.082       .  S
C162        H174   1.082       .  S
C163        C269   1.458       .  S
C164        C272   1.459       .  S
C165        C266   1.461       .  S
C166        C268   1.459       .  S
C177        C178   1.535       .  S
C177        C181   1.537       .  S
C177        C983   1.523       .  S
C177        C365   1.518       .  S
C178        H185   1.085       .  S
C178        C979   1.371       .  D
C179        C180   1.544       .  S
C179        C978   1.371       .  D
C179        C259   1.490       .  S
C180        C184   1.542       .  S
C180        C182   1.544       .  S
C180        H186   1.109       .  S
C181        H187   1.082       .  S
C181        C982   1.365       .  D
C182        C981   1.365       .  D
C182        C249   1.476       .  S
C183        C977   1.523       .  S
C183        H188   1.087       .  S
C183        C184   1.358       .  D
C184        C375   1.476       .  S
C189        C190   1.538       .  S
C189        C195   1.525       .  S
C189        C593   1.534       .  S
C189        C229   1.517       .  S
C190        H197   1.083       .  S
C190        C191   1.366       .  D
C191        C192   1.541       .  S
C191        C385   1.471       .  S
C192        C196   1.542       .  S
C192        C594   1.542       .  S
C192        H198   1.110       .  S
C193        C589   1.534   1_545  S
C193        H199   1.086       .  S
C193        C194   1.368       .  D
C194        C592   1.542       .  S
C194        C395   1.484       .  S
C195        H200   1.087       .  S
C195        C196   1.359       .  D
C196        C239   1.478       .  S
C201        C202   1.533       .  S
C201        C205   1.529       .  S
C201       C1007   1.522       .  S
C201        C327   1.517       .  S
C202        H209   1.082       .  S
C202       C1003   1.368       .  D
C203        C204   1.549       .  S
C203       C1002   1.368       .  D
C203        C307   1.481       .  S
C204        C208   1.545       .  S
C204        C206   1.549       .  S
C204        H210   1.109       .  S
C205        H211   1.085       .  S
C205       C1006   1.370       .  D
C206       C1005   1.370       .  D
C206        C297   1.493       .  S
C207       C1001   1.522       .  S
C207        H212   1.087       .  S
C207        C208   1.359       .  D
C208        C317   1.482       .  S
C213        C219   1.522       .  S
C213        C217   1.530       .  S
C213        C614   1.540       .  S
C213        C287   1.520       .  S
C214        C613   1.540   1_545  S
C214        H221   1.080       .  S
C214        C215   1.374       .  D
C215        C616   1.550   1_545  S
C215        C337   1.497       .  S
C216        C220   1.543       .  S
C216        C218   1.546       .  S
C216        C615   1.550       .  S
C216        H222   1.109       .  S
C217        H223   1.086       .  S
C217        C218   1.366       .  D
C218        C347   1.482       .  S
C219        H224   1.088       .  S
C219        C220   1.357       .  D
C220        C277   1.477       .  S
C225        C226   1.402       .  A
C225        C230   1.398       .  A
C225        H231   1.084       .  S
C226        C627   1.395       .  A
C227        C228   1.388       .  A
C227        C626   1.395   1_545  A
C227        H232   1.084       .  S
C228        C629   1.409   1_545  A
C228        H233   1.084       .  S
C229        C230   1.409       .  A
C229        C628   1.409       .  A
C230        H234   1.078       .  S
C235        C236   1.408       .  A
C235        C240   1.404       .  A
C235        H241   1.083       .  S
C236        C237   1.398       .  A
C237        C238   1.388       .  A
C237        H242   1.084       .  S
C238        C239   1.406       .  A
C238        H243   1.083       .  S
C239        C240   1.402       .  A
C240        H244   1.083       .  S
C245        C246   1.409       .  A
C245        C250   1.397       .  A
C245        H251   1.083       .  S
C246       C1047   1.405       .  A
C247        C248   1.396       .  A
C247       C1046   1.405       .  A
C247        H252   1.083       .  S
C248       C1049   1.400       .  A
C248        H253   1.077       .  S
C249        C250   1.401       .  A
C249       C1048   1.400       .  A
C250        H254   1.083       .  S
C255        C256   1.403       .  A
C255        C260   1.398       .  A
C255        H261   1.083       .  S
C256       C1057   1.404       .  A
C257        C258   1.396       .  A
C257       C1056   1.404   1_455  A
C257        H262   1.083       .  S
C258       C1059   1.406   1_455  A
C258        H263   1.082       .  S
C259        C260   1.406       .  A
C259       C1058   1.406       .  A
C260        H264   1.077       .  S
C265        C266   1.213       .  T
C267        C268   1.212       .  T
C269        C270   1.211       .  T
C271        C272   1.212       .  T
C273        C274   1.398       .  A
C273        C278   1.388       .  A
C273        H279   1.084       .  S
C274        C275   1.407       .  A
C275        C276   1.403       .  A
C275        H280   1.083       .  S
C276        C277   1.402       .  A
C276        H281   1.083       .  S
C277        C278   1.407       .  A
C278        H282   1.084       .  S
C283        C284   1.400       .  A
C283        C288   1.394       .  A
C283        H289   1.084       .  S
C284        C285   1.396       .  A
C285        C286   1.392       .  A
C285        H290   1.084       .  S
C286        C287   1.412       .  A
C286        H291   1.084       .  S
C287        C288   1.407       .  A
C288        H292   1.077       .  S
C293        C298   1.400       .  A
C293       C1094   1.402       .  A
C293        H299   1.083       .  S
C294        C295   1.401       .  A
C294       C1093   1.402       .  A
C295        C296   1.393       .  A
C295        H300   1.084       .  S
C296        C297   1.408       .  A
C296        H301   1.082       .  S
C297       C1098   1.407       .  A
C298       C1097   1.407       .  A
C298        H302   1.076       .  S
C303        C304   1.407       .  A
C303        C308   1.396       .  A
C303        H309   1.083       .  S
C304       C1105   1.405       .  A
C305        C306   1.397       .  A
C305       C1104   1.405       .  A
C305        H310   1.083       .  S
C306       C1107   1.401       .  A
C306        H311   1.076       .  S
C307        C308   1.404       .  A
C307       C1106   1.401       .  A
C308        H312   1.083       .  S
C313        C314   1.398       .  A
C313        C318   1.389       .  A
C313        H319   1.084       .  S
C314        C315   1.409       .  A
C315        C316   1.405       .  A
C315        H320   1.083       .  S
C316        C317   1.403       .  A
C316        H321   1.083       .  S
C317        C318   1.407       .  A
C318        H322   1.083       .  S
C323        C324   1.395       .  A
C323        C328   1.390       .  A
C323        H329   1.084       .  S
C324        C325   1.401       .  A
C325        C326   1.397       .  A
C325        H330   1.084       .  S
C326        C327   1.409       .  A
C326        H331   1.078       .  S
C327        C328   1.410       .  A
C328        H332   1.084       .  S
C333        C334   1.403       .  A
C333        C338   1.402       .  A
C333        H339   1.083       .  S
C334        C335   1.405       .  A
C335        C336   1.396       .  A
C335        H340   1.083       .  S
C336        C337   1.408       .  A
C336        H341   1.082       .  S
C337        C338   1.407       .  A
C338        H342   1.075       .  S
C343        C344   1.408       .  A
C343        C348   1.396       .  A
C343        H349   1.083       .  S
C344        C345   1.403       .  A
C345        C346   1.396       .  A
C345        H350   1.083       .  S
C346        C347   1.401       .  A
C346        H351   1.074       .  S
C347        C348   1.404       .  A
C348        H352   1.083       .  S
C353        C354   1.209       .  T
C355        C356   1.212       .  T
C357        C358   1.212       .  T
C359        C360   1.209       .  T
C361        C362   1.396       .  A
C361        C366   1.390       .  A
C361        H367   1.084       .  S
C362        C363   1.400       .  A
C363        C364   1.396       .  A
C363        H368   1.084       .  S
C364        C365   1.409       .  A
C364        H369   1.077       .  S
C365        C366   1.410       .  A
C366        H370   1.084       .  S
C371        C372   1.399       .  A
C371        C376   1.389       .  A
C371        H377   1.084       .  S
C372        C373   1.408       .  A
C373        C374   1.403       .  A
C373        H378   1.083       .  S
C374        C375   1.401       .  A
C374        H379   1.083       .  S
C375        C376   1.406       .  A
C376        H380   1.084       .  S
C381        C382   1.407       .  A
C381        C386   1.396       .  A
C381        H387   1.083       .  S
C382        C383   1.409       .  A
C383        C384   1.397       .  A
C383        H388   1.083       .  S
C384        C385   1.400       .  A
C384        H389   1.083       .  S
C385        C386   1.400       .  A
C386        H390   1.080       .  S
C391        C392   1.405       .  A
C391        C396   1.399       .  A
C391        H397   1.083       .  S
C392        C393   1.406       .  A
C393        C394   1.395       .  A
C393        H398   1.083       .  S
C394        C395   1.405       .  A
C394        H399   1.083       .  S
C395        C396   1.404       .  A
C396        H400   1.080       .  S
O401       Zr437   2.435       .  S
O401        C412   1.292       .  A
O402       Zr436   2.422       .  S
O402        C413   1.289       .  A
O403       Zr409   2.464       .  S
O403        C414   1.296       .  A
O404       Zr409   2.472       .  S
O404        C415   1.298       .  A
O405       Zr439   2.433       .  S
O405        C415   1.289       .  A
O406       Zr438   2.427       .  S
O406        C414   1.289       .  A
O407       Zr409   2.463       .  S
O407        C413   1.297       .  A
O408       Zr409   2.448       .  S
O408        C412   1.295       .  A
Zr409       O410   2.345       .  S
Zr409       O411   2.345       .  S
Zr409       O419   2.351       .  S
Zr409       O417   2.343       .  S
O410       Zr436   2.339       .  S
O410       Zr439   2.339       .  S
O411       Zr437   2.338       .  S
O411       Zr438   2.335       .  S
C412        C792   1.479       .  S
C413        C734   1.480       .  S
C414        C754   1.440       .  S
C415        C755   1.445       .  S
H416        O417   0.965       .  S
O417       Zr436   2.338       .  S
O417       Zr438   2.337       .  S
H418        O419   0.965       .  S
O419       Zr437   2.341       .  S
O419       Zr439   2.339       .  S
O420       Zr436   2.424       .  S
O420        C443   1.289       .  A
O421       Zr437   2.440       .  S
O421        C444   1.293       .  A
O422       Zr438   2.456       .  S
O422        C445   1.296       .  A
O423       Zr439   2.441       .  S
O423        C446   1.292       .  A
O424       Zr439   2.436       .  S
O424        C447   1.291       .  A
O425       Zr438   2.453       .  S
O425        C448   1.296       .  A
O426       Zr440   2.462       .  S
O426        C449   1.296       .  A
O427       Zr440   2.471       .  S
O427        C450   1.298       .  A
O428       Zr438   2.430       .  S
O428        C449   1.289       .  A
O429       Zr439   2.436       .  S
O429        C450   1.290       .  A
O430       Zr436   2.415       .  S
O430        C445   1.286       .  A
O431       Zr437   2.415       .  S
O431        C448   1.286       .  A
O432       Zr437   2.418       .  S
O432        C447   1.287       .  A
O433       Zr436   2.410       .  S
O433        C446   1.285       .  A
O434       Zr440   2.444       .  S
O434        C443   1.294       .  A
O435       Zr440   2.435       .  S
O435        C444   1.292       .  A
Zr436       O442   2.335       .  S
Zr436       O454   2.334       .  S
Zr437       O441   2.336       .  S
Zr437       O452   2.335       .  S
Zr438       O442   2.341       .  S
Zr438       O452   2.338       .  S
Zr439       O441   2.344       .  S
Zr439       O454   2.341       .  S
Zr440       O441   2.349       .  S
Zr440       O442   2.345       .  S
Zr440       O454   2.345       .  S
Zr440       O452   2.347       .  S
C443        C744   1.479       .  S
C444        C782   1.482       .  S
C445        C714   1.473       .  S
C446        C724   1.457       .  S
C447        C762   1.458       .  S
C448        C772   1.469       .  S
C449        C759   1.439       .  S
C450        C757   1.445       .  S
H451        O452   0.965       .  S
H453        O454   0.964       .  S
N455        H487   1.035       .  S
N455       C1260   1.357   1_455  A
N455        C459   1.358       .  A
N456        C464   1.353       .  A
N457        H488   1.035       .  S
N457       C1262   1.357   1_455  A
N457        C461   1.358       .  A
N458        C466   1.352       .  A
C459        C467   1.387       .  A
C459        C475   1.423       .  A
C460       N1255   1.357       .  A
C460        C476   1.422       .  A
C460        C468   1.388       .  A
C461        C469   1.388       .  A
C461        C478   1.423       .  A
C462       N1257   1.357       .  A
C462        C477   1.422       .  A
C462        C470   1.388       .  A
C463        C475   1.416       .  A
C463        C471   1.387       .  A
C464        C478   1.416       .  A
C464        C472   1.387       .  A
C465        C473   1.388       .  A
C465        C476   1.415       .  A
C466        C474   1.388       .  A
C466        C477   1.415       .  A
C467       C1268   1.377   1_455  A
C467        H479   1.082       .  S
C468       C1267   1.377       .  A
C468        H480   1.082       .  S
C469       C1270   1.377   1_455  A
C469        H481   1.082       .  S
C470       C1269   1.377       .  A
C470        H482   1.082       .  S
C471        H483   1.082       .  S
C472        H484   1.082       .  S
C473        H485   1.082       .  S
C474        H486   1.082       .  S
C475        C756   1.460       .  S
C476        C753   1.457       .  S
C477        C760   1.455       .  S
C478        C758   1.461       .  S
O489       Zr525   2.428       .  S
O489        C500   1.291       .  A
O490       Zr524   2.426       .  S
O490        C501   1.290       .  A
O491      Zr1297   2.468   1_455  S
O491        C502   1.297   1_556  A
O492       Zr497   2.469       .  S
O492        C503   1.297       .  A
O493       Zr527   2.434   1_554  S
O493        C503   1.290   1_554  A
O494       Zr526   2.437       .  S
O494        C502   1.291       .  A
O495       Zr497   2.442   1_554  S
O495        C501   1.294       .  A
O496       Zr497   2.448       .  S
O496        C500   1.295       .  A
Zr497      O1291   2.468       .  S
Zr497       O498   2.345   1_556  S
Zr497      O1299   2.343       .  S
Zr497       O507   2.342       .  S
Zr497      O1305   2.350   1_556  S
O498       Zr524   2.336       .  S
O498       Zr527   2.336   1_554  S
O499      Zr1297   2.343   1_455  S
O499      Zr1325   2.335   1_455  S
O499       Zr526   2.340   1_556  S
C500        C704   1.481       .  S
C501        C646   1.482       .  S
C502        C665   1.445       .  S
C503        C667   1.444       .  S
H504        O505   0.968       .  S
O505      Zr1297   2.350   1_454  S
O505      Zr1324   2.337   1_455  S
O505       Zr526   2.339       .  S
H506        O507   0.965       .  S
O507       Zr525   2.336       .  S
O507       Zr527   2.339       .  S
O508        C531   1.291       .  A
O509        C532   1.290       .  A
O510       Zr526   2.441       .  S
O510        C533   1.292       .  A
O511       Zr527   2.449   1_554  S
O511        C534   1.295       .  A
O512       Zr527   2.439       .  S
O512        C535   1.293       .  A
O513       Zr526   2.437   1_556  S
O513        C536   1.292       .  A
O514      Zr1328   2.469   1_455  S
O514        C537   1.297       .  A
O515       Zr528   2.464   1_556  S
O515        C538   1.296       .  A
O516        C537   1.290       .  A
O517        C538   1.290       .  A
O518      Zr1324   2.412   1_455  S
O518        C533   1.286       .  A
O519      Zr1325   2.412   1_455  S
O519        C536   1.286       .  A
O520       Zr525   2.424       .  S
O520        C535   1.288       .  A
O521       Zr524   2.413       .  S
O521        C534   1.286       .  A
O522       Zr528   2.445       .  S
O522        C531   1.294       .  A
O523       Zr528   2.446   1_556  S
O523        C532   1.294       .  A
Zr524      O1318   2.412       .  S
Zr524      O1305   2.337       .  S
Zr524       O930   2.337   1_565  S
Zr525      O1319   2.412       .  S
Zr525      O1299   2.335       .  S
Zr525       O940   2.338   1_565  S
Zr528      O1314   2.469       .  S
Zr528       O529   2.345   1_554  S
Zr528      O1330   2.349       .  S
Zr528       O542   2.345       .  S
Zr528      O1340   2.347   1_554  S
O530       Zr924   2.337   1_455  S
O530      Zr1328   2.349   1_455  S
C531        C656   1.477       .  S
C532        C694   1.472       .  S
C533        C626   1.459       .  S
C534        C636   1.469   1_565  S
C535        C674   1.467       .  S
C536        C684   1.459       .  S
C537        C671   1.444       .  S
C538        C670   1.442       .  S
H539        O540   0.966       .  S
O540       Zr925   2.338   1_455  S
O540      Zr1328   2.347   1_456  S
H541        O542   0.964       .  S
N543        H575   1.036       .  S
N543        C548   1.357   1_554  A
N543        C547   1.357   1_554  A
N544        C551   1.353   1_556  A
N544        C552   1.353   1_556  A
N545        H576   1.036       .  S
N545        C550   1.358   1_554  A
N545        C549   1.356   1_554  A
N546        C553   1.353       .  A
N546        C554   1.353       .  A
C547        C555   1.387       .  A
C547        C563   1.421       .  A
C548        C564   1.422   1_556  A
C548        C556   1.388       .  A
C549        C557   1.387       .  A
C549        C566   1.422       .  A
C550        C565   1.422   1_556  A
C550        C558   1.387       .  A
C551        C563   1.414   1_554  A
C551        C559   1.387       .  A
C552        C566   1.415   1_554  A
C552        C560   1.388       .  A
C553        C561   1.388       .  A
C553        C564   1.415       .  A
C554        C562   1.387       .  A
C554        C565   1.415       .  A
C555        C556   1.378       .  A
C555        H567   1.082       .  S
C556        H568   1.082       .  S
C557        C558   1.379       .  A
C557        H569   1.082       .  S
C558        H570   1.082       .  S
C559        C560   1.370       .  A
C559        H571   1.082       .  S
C560        H572   1.082       .  S
C561        C562   1.371       .  A
C561        H573   1.082       .  S
C562        H574   1.082       .  S
C563        C669   1.458       .  S
C564        C672   1.459       .  S
C565        C666   1.461       .  S
C566        C668   1.459       .  S
C577        C578   1.535       .  S
C577       C1383   1.523       .  S
C577        C581   1.537       .  S
C577        C765   1.518       .  S
C578        H585   1.085       .  S
C578       C1379   1.371       .  D
C579        C580   1.544       .  S
C579       C1378   1.371       .  D
C579        C659   1.490       .  S
C580        C584   1.542       .  S
C580        C582   1.544       .  S
C580        H586   1.109       .  S
C581        H587   1.082       .  S
C581       C1382   1.365       .  D
C582       C1381   1.365       .  D
C582        C649   1.476       .  S
C583       C1377   1.523       .  S
C583        H588   1.087       .  S
C583        C584   1.358       .  D
C584        C775   1.476       .  S
C589        C590   1.538       .  S
C589        C595   1.525       .  S
C589        C629   1.517       .  S
C590        H597   1.083       .  S
C590        C591   1.366       .  D
C591        C592   1.541   1_565  S
C591        C785   1.471       .  S
C592        C596   1.542       .  S
C592        H598   1.110       .  S
C593        H599   1.086       .  S
C593        C594   1.368       .  D
C594        C795   1.484       .  S
C595        H600   1.087       .  S
C595        C596   1.359   1_565  D
C596        C639   1.478       .  S
C601        C602   1.533       .  S
C601       C1407   1.522       .  S
C601        C605   1.529       .  S
C601        C727   1.517       .  S
C602        H609   1.082       .  S
C602       C1403   1.368       .  D
C603        C604   1.549       .  S
C603       C1402   1.368       .  D
C603        C707   1.481       .  S
C604        C608   1.545       .  S
C604        C606   1.549       .  S
C604        H610   1.109       .  S
C605        H611   1.085       .  S
C605       C1406   1.370       .  D
C606       C1405   1.370       .  D
C606        C697   1.493       .  S
C607       C1401   1.522       .  S
C607        H612   1.087       .  S
C607        C608   1.359       .  D
C608        C717   1.482       .  S
C613        C619   1.522       .  S
C613        C617   1.530       .  S
C613        C687   1.520       .  S
C614        H621   1.080       .  S
C614        C615   1.374       .  D
C615        C737   1.497       .  S
C616        C620   1.543       .  S
C616        C618   1.546       .  S
C616        H622   1.109       .  S
C617        H623   1.086       .  S
C617        C618   1.366       .  D
C618        C747   1.482       .  S
C619        H624   1.088       .  S
C619        C620   1.357       .  D
C620        C677   1.477       .  S
C625        C626   1.402       .  A
C625        C630   1.398       .  A
C625        H631   1.084       .  S
C627        C628   1.388       .  A
C627        H632   1.084       .  S
C628        H633   1.084       .  S
C629        C630   1.409       .  A
C630        H634   1.078       .  S
C635        C636   1.408   1_565  A
C635        C640   1.404       .  A
C635        H641   1.083       .  S
C636        C637   1.398       .  A
C637        C638   1.388       .  A
C637        H642   1.084       .  S
C638        C639   1.406       .  A
C638        H643   1.083       .  S
C639        C640   1.402   1_545  A
C640        H644   1.083       .  S
C645        C646   1.409       .  A
C645        C650   1.397       .  A
C645        H651   1.083       .  S
C646       C1447   1.405       .  A
C647       C1446   1.405       .  A
C647        C648   1.396       .  A
C647        H652   1.083       .  S
C648       C1449   1.400       .  A
C648        H653   1.077       .  S
C649       C1448   1.400       .  A
C649        C650   1.401       .  A
C650        H654   1.083       .  S
C655        C656   1.403       .  A
C655        C660   1.398       .  A
C655        H661   1.083       .  S
C656       C1457   1.404       .  A
C657       C1456   1.404   1_455  A
C657        C658   1.396       .  A
C657        H662   1.083       .  S
C658       C1459   1.406   1_455  A
C658        H663   1.082       .  S
C659       C1458   1.406       .  A
C659        C660   1.406       .  A
C660        H664   1.077       .  S
C665        C666   1.213       .  T
C667        C668   1.212       .  T
C669        C670   1.211       .  T
C671        C672   1.212       .  T
C673        C674   1.398       .  A
C673        C678   1.388       .  A
C673        H679   1.084       .  S
C674        C675   1.407   1_565  A
C675        C676   1.403       .  A
C675        H680   1.083       .  S
C676        C677   1.402   1_545  A
C676        H681   1.083       .  S
C677        C678   1.407       .  A
C678        H682   1.084       .  S
C683        C684   1.400   1_545  A
C683        C688   1.394       .  A
C683        H689   1.084       .  S
C684        C685   1.396       .  A
C685        C686   1.392       .  A
C685        H690   1.084       .  S
C686        C687   1.412       .  A
C686        H691   1.084       .  S
C687        C688   1.407   1_565  A
C688        H692   1.077       .  S
C693       C1494   1.402       .  A
C693        C698   1.400       .  A
C693        H699   1.083       .  S
C694       C1493   1.402       .  A
C694        C695   1.401       .  A
C695        C696   1.393       .  A
C695        H700   1.084       .  S
C696        C697   1.408       .  A
C696        H701   1.082       .  S
C697       C1498   1.407       .  A
C698       C1497   1.407       .  A
C698        H702   1.077       .  S
C703        C704   1.407       .  A
C703        C708   1.396       .  A
C703        H709   1.083       .  S
C704       C1505   1.405       .  A
C705       C1504   1.405       .  A
C705        C706   1.397       .  A
C705        H710   1.083       .  S
C706       C1507   1.401       .  A
C706        H711   1.076       .  S
C707       C1506   1.401       .  A
C707        C708   1.404       .  A
C708        H712   1.083       .  S
C713        C714   1.398       .  A
C713        C718   1.389       .  A
C713        H719   1.084       .  S
C714        C715   1.409       .  A
C715        C716   1.405       .  A
C715        H720   1.083       .  S
C716        C717   1.403       .  A
C716        H721   1.083       .  S
C717        C718   1.407       .  A
C718        H722   1.083       .  S
C723        C724   1.395       .  A
C723        C728   1.390       .  A
C723        H729   1.084       .  S
C724        C725   1.401       .  A
C725        C726   1.397       .  A
C725        H730   1.084       .  S
C726        C727   1.409       .  A
C726        H731   1.078       .  S
C727        C728   1.410       .  A
C728        H732   1.084       .  S
C733        C734   1.403       .  A
C733        C738   1.402       .  A
C733        H739   1.083       .  S
C734        C735   1.405       .  A
C735        C736   1.396       .  A
C735        H740   1.083       .  S
C736        C737   1.408       .  A
C736        H741   1.082       .  S
C737        C738   1.407       .  A
C738        H742   1.075       .  S
C743        C744   1.408       .  A
C743        C748   1.396       .  A
C743        H749   1.083       .  S
C744        C745   1.403       .  A
C745        C746   1.396       .  A
C745        H750   1.083       .  S
C746        C747   1.401       .  A
C746        H751   1.074       .  S
C747        C748   1.404       .  A
C748        H752   1.083       .  S
C753        C754   1.209       .  T
C755        C756   1.212       .  T
C757        C758   1.212       .  T
C759        C760   1.209       .  T
C761        C762   1.396       .  A
C761        C766   1.390       .  A
C761        H767   1.084       .  S
C762        C763   1.400       .  A
C763        C764   1.396       .  A
C763        H768   1.084       .  S
C764        C765   1.409       .  A
C764        H769   1.077       .  S
C765        C766   1.410       .  A
C766        H770   1.084       .  S
C771        C772   1.399       .  A
C771        C776   1.389       .  A
C771        H777   1.084       .  S
C772        C773   1.408       .  A
C773        C774   1.403       .  A
C773        H778   1.083       .  S
C774        C775   1.401       .  A
C774        H779   1.083       .  S
C775        C776   1.406       .  A
C776        H780   1.084       .  S
C781        C782   1.407       .  A
C781        C786   1.396       .  A
C781        H787   1.083       .  S
C782        C783   1.409       .  A
C783        C784   1.397       .  A
C783        H788   1.083       .  S
C784        C785   1.400       .  A
C784        H789   1.083       .  S
C785        C786   1.400       .  A
C786        H790   1.080       .  S
C791        C792   1.405       .  A
C791        C796   1.399       .  A
C791        H797   1.083       .  S
C792        C793   1.406       .  A
C793        C794   1.395       .  A
C793        H798   1.083       .  S
C794        C795   1.405       .  A
C794        H799   1.083       .  S
C795        C796   1.404       .  A
C796        H800   1.080       .  S
O801       Zr837   2.435       .  S
O801        C812   1.292       .  A
O802       Zr836   2.422       .  S
O802        C813   1.289       .  A
O803       Zr809   2.464       .  S
O803        C814   1.296       .  A
O804       Zr809   2.472       .  S
O804        C815   1.298       .  A
O805       Zr839   2.433       .  S
O805        C815   1.289       .  A
O806       Zr838   2.427       .  S
O806        C814   1.289       .  A
O807       Zr809   2.463       .  S
O807        C813   1.297       .  A
O808       Zr809   2.448       .  S
O808        C812   1.295       .  A
Zr809       O810   2.345       .  S
Zr809       O811   2.345       .  S
Zr809       O819   2.351       .  S
Zr809       O817   2.343       .  S
O810       Zr836   2.339       .  S
O810       Zr839   2.339       .  S
O811       Zr837   2.338       .  S
O811       Zr838   2.335       .  S
C812       C1192   1.480       .  S
C813       C1134   1.480       .  S
C814       C1154   1.440       .  S
C815       C1155   1.445       .  S
H816        O817   0.965       .  S
O817       Zr836   2.338       .  S
O817       Zr838   2.337       .  S
H818        O819   0.965       .  S
O819       Zr837   2.341       .  S
O819       Zr839   2.339       .  S
O820       Zr836   2.424       .  S
O820        C843   1.289       .  A
O821       Zr837   2.440       .  S
O821        C844   1.293       .  A
O822       Zr838   2.456       .  S
O822        C845   1.296       .  A
O823       Zr839   2.441       .  S
O823        C846   1.292       .  A
O824       Zr839   2.436       .  S
O824        C847   1.291       .  A
O825       Zr838   2.453       .  S
O825        C848   1.296       .  A
O826       Zr840   2.462       .  S
O826        C849   1.296       .  A
O827       Zr840   2.471       .  S
O827        C850   1.298       .  A
O828       Zr838   2.430       .  S
O828        C849   1.289       .  A
O829       Zr839   2.436       .  S
O829        C850   1.290       .  A
O830       Zr836   2.415       .  S
O830        C845   1.286       .  A
O831       Zr837   2.415       .  S
O831        C848   1.286       .  A
O832       Zr837   2.418       .  S
O832        C847   1.287       .  A
O833       Zr836   2.410       .  S
O833        C846   1.285       .  A
O834       Zr840   2.444       .  S
O834        C843   1.294       .  A
O835       Zr840   2.435       .  S
O835        C844   1.292       .  A
Zr836       O842   2.335       .  S
Zr836       O854   2.334       .  S
Zr837       O841   2.336       .  S
Zr837       O852   2.335       .  S
Zr838       O842   2.341       .  S
Zr838       O852   2.338       .  S
Zr839       O841   2.344       .  S
Zr839       O854   2.341       .  S
Zr840       O841   2.349       .  S
Zr840       O842   2.345       .  S
Zr840       O854   2.345       .  S
Zr840       O852   2.347       .  S
C843       C1144   1.479       .  S
C844       C1182   1.482       .  S
C845       C1114   1.473       .  S
C846       C1124   1.457       .  S
C847       C1162   1.458       .  S
C848       C1172   1.469       .  S
C849       C1159   1.439       .  S
C850       C1157   1.445       .  S
H851        O852   0.965       .  S
H853        O854   0.964       .  S
N855        H887   1.035       .  S
N855        C859   1.358       .  A
N856       C1263   1.353       .  A
N856        C864   1.353       .  A
N857        H888   1.035       .  S
N857        C861   1.358       .  A
N858       C1265   1.352       .  A
N858        C866   1.352       .  A
C859        C867   1.387       .  A
C859        C875   1.423       .  A
C860        C876   1.422       .  A
C860        C868   1.388       .  A
C861        C869   1.388       .  A
C861        C878   1.423       .  A
C862        C877   1.422       .  A
C862        C870   1.388       .  A
C863       N1256   1.353   1_545  A
C863        C875   1.416       .  A
C863        C871   1.387       .  A
C864        C878   1.416       .  A
C864        C872   1.387       .  A
C865       N1258   1.352   1_545  A
C865        C873   1.388       .  A
C865        C876   1.415       .  A
C866        C874   1.388       .  A
C866        C877   1.415       .  A
C867        H879   1.082       .  S
C868        H880   1.082       .  S
C869        H881   1.082       .  S
C870        H882   1.082       .  S
C871       C1272   1.369   1_545  A
C871        H883   1.082       .  S
C872       C1271   1.369       .  A
C872        H884   1.082       .  S
C873       C1274   1.370   1_545  A
C873        H885   1.082       .  S
C874       C1273   1.370       .  A
C874        H886   1.082       .  S
C875       C1156   1.460       .  S
C876       C1153   1.457       .  S
C877       C1160   1.455       .  S
C878       C1158   1.461       .  S
O889       Zr925   2.428       .  S
O889        C900   1.291       .  A
O890       Zr924   2.426       .  S
O890        C901   1.290       .  A
O891        C902   1.297   1_556  A
O892       Zr897   2.469       .  S
O892        C903   1.297       .  A
O893       Zr927   2.434   1_554  S
O893        C903   1.290   1_554  A
O894       Zr926   2.437       .  S
O894        C902   1.291       .  A
O895       Zr897   2.442   1_554  S
O895        C901   1.294       .  A
O896       Zr897   2.448       .  S
O896        C900   1.295       .  A
Zr897       O898   2.345   1_556  S
Zr897       O907   2.342       .  S
O898       Zr924   2.336       .  S
O898       Zr927   2.336   1_554  S
O899       Zr926   2.340   1_556  S
C900       C1104   1.481       .  S
C901       C1046   1.482       .  S
C902       C1065   1.445       .  S
C903       C1067   1.444       .  S
H904        O905   0.968       .  S
O905       Zr926   2.339       .  S
H906        O907   0.965       .  S
O907       Zr925   2.336       .  S
O907       Zr927   2.339       .  S
O908      Zr1324   2.434   1_545  S
O908        C931   1.291       .  A
O909      Zr1325   2.424   1_545  S
O909        C932   1.290       .  A
O910       Zr926   2.441       .  S
O910        C933   1.292       .  A
O911       Zr927   2.449   1_554  S
O911        C934   1.295       .  A
O912       Zr927   2.439       .  S
O912        C935   1.293       .  A
O913       Zr926   2.437   1_556  S
O913        C936   1.292       .  A
O914        C937   1.297       .  A
O915       Zr928   2.464   1_556  S
O915        C938   1.296       .  A
O916      Zr1326   2.438   1_545  S
O916        C937   1.290       .  A
O917      Zr1327   2.431   1_545  S
O917        C938   1.290       .  A
O918        C933   1.286       .  A
O919        C936   1.286       .  A
O920       Zr925   2.424       .  S
O920        C935   1.288       .  A
O921       Zr924   2.413       .  S
O921        C934   1.286       .  A
O922       Zr928   2.445       .  S
O922        C931   1.294       .  A
O923       Zr928   2.446   1_556  S
O923        C932   1.294       .  A
Zr924      O1308   2.434       .  S
Zr924      O1342   2.337       .  S
Zr925      O1309   2.424       .  S
Zr925      O1329   2.334       .  S
Zr926      O1316   2.438       .  S
Zr926      O1330   2.340       .  S
Zr926      O1340   2.344   1_554  S
Zr927      O1317   2.431       .  S
Zr927      O1329   2.341       .  S
Zr927      O1342   2.337   1_556  S
Zr928       O929   2.345   1_554  S
Zr928       O942   2.345       .  S
O929      Zr1325   2.334   1_545  S
O929      Zr1327   2.341   1_545  S
O930      Zr1326   2.340   1_545  S
C931       C1056   1.477       .  S
C932       C1094   1.472       .  S
C933       C1026   1.459       .  S
C934       C1036   1.469       .  S
C935       C1074   1.467       .  S
C936       C1084   1.459       .  S
C937       C1071   1.444       .  S
C938       C1070   1.442       .  S
H939        O940   0.966       .  S
O940      Zr1326   2.344   1_546  S
H941        O942   0.964       .  S
O942      Zr1324   2.337   1_545  S
O942      Zr1327   2.337   1_544  S
N943        H975   1.036       .  S
N943        C948   1.357   1_554  A
N943        C947   1.357   1_554  A
N944        C951   1.353   1_556  A
N944        C952   1.353   1_556  A
N945        H976   1.036       .  S
N945        C950   1.358   1_554  A
N945        C949   1.356   1_554  A
N946        C953   1.353       .  A
N946        C954   1.353       .  A
C947        C955   1.387       .  A
C947        C963   1.421       .  A
C948        C964   1.422   1_556  A
C948        C956   1.388       .  A
C949        C957   1.387       .  A
C949        C966   1.422       .  A
C950        C965   1.422   1_556  A
C950        C958   1.387       .  A
C951        C963   1.414   1_554  A
C951        C959   1.387       .  A
C952        C966   1.415   1_554  A
C952        C960   1.388       .  A
C953        C961   1.388       .  A
C953        C964   1.415       .  A
C954        C962   1.387       .  A
C954        C965   1.415       .  A
C955        C956   1.378       .  A
C955        H967   1.082       .  S
C956        H968   1.082       .  S
C957        C958   1.379       .  A
C957        H969   1.082       .  S
C958        H970   1.082       .  S
C959        C960   1.370       .  A
C959        H971   1.082       .  S
C960        H972   1.082       .  S
C961        C962   1.371       .  A
C961        H973   1.082       .  S
C962        H974   1.082       .  S
C963       C1069   1.458       .  S
C964       C1072   1.459       .  S
C965       C1066   1.461       .  S
C966       C1068   1.459       .  S
C977        C978   1.535       .  S
C977        C981   1.537       .  S
C977       C1165   1.518       .  S
C978        H985   1.085       .  S
C979        C980   1.544   1_455  S
C979       C1059   1.490   1_455  S
C980        C984   1.542       .  S
C980        C982   1.544   1_655  S
C980        H986   1.109       .  S
C981        H987   1.082       .  S
C982       C1049   1.476   1_455  S
C983        H988   1.087       .  S
C983        C984   1.358   1_455  D
C984       C1175   1.476       .  S
C989        C990   1.538       .  S
C989        C995   1.525       .  S
C989       C1393   1.534       .  S
C989       C1029   1.517       .  S
C990        H997   1.083       .  S
C990        C991   1.366       .  D
C991        C992   1.541       .  S
C991       C1185   1.471       .  S
C992        C996   1.542       .  S
C992       C1394   1.542       .  S
C992        H998   1.110       .  S
C993       C1389   1.534   1_545  S
C993        H999   1.086       .  S
C993        C994   1.368       .  D
C994       C1392   1.542       .  S
C994       C1195   1.484       .  S
C995       H1000   1.087       .  S
C995        C996   1.359       .  D
C996       C1039   1.478       .  S
C1001      C1002   1.533       .  S
C1001      C1005   1.529       .  S
C1001      C1127   1.517       .  S
C1002      H1009   1.082       .  S
C1003      C1004   1.549   1_455  S
C1003      C1107   1.481   1_455  S
C1004      C1008   1.545       .  S
C1004      C1006   1.549   1_655  S
C1004      H1010   1.109       .  S
C1005      H1011   1.085       .  S
C1006      C1097   1.493   1_455  S
C1007      H1012   1.087       .  S
C1007      C1008   1.359   1_455  D
C1008      C1117   1.482       .  S
C1013      C1414   1.540       .  S
C1013      C1019   1.522       .  S
C1013      C1017   1.530       .  S
C1013      C1087   1.520       .  S
C1014      C1413   1.540   1_545  S
C1014      H1021   1.080       .  S
C1014      C1015   1.374       .  D
C1015      C1416   1.550   1_545  S
C1015      C1137   1.497       .  S
C1016      C1415   1.550       .  S
C1016      C1020   1.543       .  S
C1016      C1018   1.546       .  S
C1016      H1022   1.109       .  S
C1017      H1023   1.086       .  S
C1017      C1018   1.366       .  D
C1018      C1147   1.482       .  S
C1019      H1024   1.088       .  S
C1019      C1020   1.357       .  D
C1020      C1077   1.477       .  S
C1025      C1026   1.402       .  A
C1025      C1030   1.398       .  A
C1025      H1031   1.084       .  S
C1026      C1427   1.395       .  A
C1027      C1426   1.395   1_545  A
C1027      C1028   1.388       .  A
C1027      H1032   1.084       .  S
C1028      C1429   1.409   1_545  A
C1028      H1033   1.084       .  S
C1029      C1428   1.409       .  A
C1029      C1030   1.409       .  A
C1030      H1034   1.078       .  S
C1035      C1036   1.408       .  A
C1035      C1040   1.404       .  A
C1035      H1041   1.083       .  S
C1036      C1037   1.398       .  A
C1037      C1038   1.388       .  A
C1037      H1042   1.084       .  S
C1038      C1039   1.406       .  A
C1038      H1043   1.083       .  S
C1039      C1040   1.402       .  A
C1040      H1044   1.083       .  S
C1045      C1046   1.409       .  A
C1045      C1050   1.397       .  A
C1045      H1051   1.083       .  S
C1047      C1048   1.396       .  A
C1047      H1052   1.083       .  S
C1048      H1053   1.077       .  S
C1049      C1050   1.401       .  A
C1050      H1054   1.083       .  S
C1055      C1056   1.403       .  A
C1055      C1060   1.398       .  A
C1055      H1061   1.083       .  S
C1057      C1058   1.396       .  A
C1057      H1062   1.083       .  S
C1058      H1063   1.082       .  S
C1059      C1060   1.406       .  A
C1060      H1064   1.077       .  S
C1065      C1066   1.213       .  T
C1067      C1068   1.212       .  T
C1069      C1070   1.211       .  T
C1071      C1072   1.212       .  T
C1073      C1074   1.398       .  A
C1073      C1078   1.388       .  A
C1073      H1079   1.084       .  S
C1074      C1075   1.407       .  A
C1075      C1076   1.403       .  A
C1075      H1080   1.083       .  S
C1076      C1077   1.402       .  A
C1076      H1081   1.083       .  S
C1077      C1078   1.407       .  A
C1078      H1082   1.084       .  S
C1083      C1084   1.400       .  A
C1083      C1088   1.394       .  A
C1083      H1089   1.084       .  S
C1084      C1085   1.396       .  A
C1085      C1086   1.392       .  A
C1085      H1090   1.084       .  S
C1086      C1087   1.412       .  A
C1086      H1091   1.084       .  S
C1087      C1088   1.407       .  A
C1088      H1092   1.077       .  S
C1093      C1098   1.400       .  A
C1093      H1099   1.083       .  S
C1094      C1095   1.401   1_655  A
C1095      C1096   1.393       .  A
C1095      H1100   1.084       .  S
C1096      C1097   1.408   1_455  A
C1096      H1101   1.082       .  S
C1098      H1102   1.076       .  S
C1103      C1104   1.407   1_455  A
C1103      C1108   1.396       .  A
C1103      H1109   1.083       .  S
C1105      C1106   1.397       .  A
C1105      H1110   1.083       .  S
C1106      H1111   1.076       .  S
C1107      C1108   1.404   1_655  A
C1108      H1112   1.083       .  S
C1113      C1114   1.398       .  A
C1113      C1118   1.389       .  A
C1113      H1119   1.084       .  S
C1114      C1115   1.409       .  A
C1115      C1116   1.405       .  A
C1115      H1120   1.083       .  S
C1116      C1117   1.403       .  A
C1116      H1121   1.083       .  S
C1117      C1118   1.407       .  A
C1118      H1122   1.083       .  S
C1123      C1124   1.395       .  A
C1123      C1128   1.390       .  A
C1123      H1129   1.084       .  S
C1124      C1125   1.401       .  A
C1125      C1126   1.397       .  A
C1125      H1130   1.084       .  S
C1126      C1127   1.409       .  A
C1126      H1131   1.078       .  S
C1127      C1128   1.410       .  A
C1128      H1132   1.084       .  S
C1133      C1134   1.403       .  A
C1133      C1138   1.402       .  A
C1133      H1139   1.083       .  S
C1134      C1135   1.405       .  A
C1135      C1136   1.396       .  A
C1135      H1140   1.083       .  S
C1136      C1137   1.408       .  A
C1136      H1141   1.082       .  S
C1137      C1138   1.407       .  A
C1138      H1142   1.075       .  S
C1143      C1144   1.408       .  A
C1143      C1148   1.396       .  A
C1143      H1149   1.083       .  S
C1144      C1145   1.403       .  A
C1145      C1146   1.396       .  A
C1145      H1150   1.083       .  S
C1146      C1147   1.401       .  A
C1146      H1151   1.074       .  S
C1147      C1148   1.404       .  A
C1148      H1152   1.083       .  S
C1153      C1154   1.209       .  T
C1155      C1156   1.212       .  T
C1157      C1158   1.212       .  T
C1159      C1160   1.209       .  T
C1161      C1162   1.396       .  A
C1161      C1166   1.390       .  A
C1161      H1167   1.084       .  S
C1162      C1163   1.400       .  A
C1163      C1164   1.396       .  A
C1163      H1168   1.084       .  S
C1164      C1165   1.409       .  A
C1164      H1169   1.077       .  S
C1165      C1166   1.410       .  A
C1166      H1170   1.084       .  S
C1171      C1172   1.399       .  A
C1171      C1176   1.389       .  A
C1171      H1177   1.084       .  S
C1172      C1173   1.408       .  A
C1173      C1174   1.403       .  A
C1173      H1178   1.083       .  S
C1174      C1175   1.401       .  A
C1174      H1179   1.083       .  S
C1175      C1176   1.406       .  A
C1176      H1180   1.084       .  S
C1181      C1182   1.407       .  A
C1181      C1186   1.396       .  A
C1181      H1187   1.083       .  S
C1182      C1183   1.408       .  A
C1183      C1184   1.397       .  A
C1183      H1188   1.083       .  S
C1184      C1185   1.400       .  A
C1184      H1189   1.083       .  S
C1185      C1186   1.400       .  A
C1186      H1190   1.080       .  S
C1191      C1192   1.405       .  A
C1191      C1196   1.399       .  A
C1191      H1197   1.083       .  S
C1192      C1193   1.406       .  A
C1193      C1194   1.395       .  A
C1193      H1198   1.083       .  S
C1194      C1195   1.405       .  A
C1194      H1199   1.083       .  S
C1195      C1196   1.404       .  A
C1196      H1200   1.080       .  S
O1201     Zr1237   2.435       .  S
O1201      C1212   1.292       .  A
O1202     Zr1236   2.422       .  S
O1202      C1213   1.289       .  A
O1203     Zr1209   2.464       .  S
O1203      C1214   1.296       .  A
O1204     Zr1209   2.472       .  S
O1204      C1215   1.298       .  A
O1205     Zr1239   2.433       .  S
O1205      C1215   1.289       .  A
O1206     Zr1238   2.427       .  S
O1206      C1214   1.289       .  A
O1207     Zr1209   2.463       .  S
O1207      C1213   1.297       .  A
O1208     Zr1209   2.448       .  S
O1208      C1212   1.295       .  A
Zr1209     O1210   2.345       .  S
Zr1209     O1211   2.345       .  S
Zr1209     O1219   2.351       .  S
Zr1209     O1217   2.343       .  S
O1210     Zr1236   2.339       .  S
O1210     Zr1239   2.339       .  S
O1211     Zr1237   2.338       .  S
O1211     Zr1238   2.335       .  S
C1212      C1592   1.480       .  S
C1213      C1534   1.480       .  S
C1214      C1554   1.440       .  S
C1215      C1555   1.445       .  S
H1216      O1217   0.965       .  S
O1217     Zr1236   2.338       .  S
O1217     Zr1238   2.337       .  S
H1218      O1219   0.965       .  S
O1219     Zr1237   2.341       .  S
O1219     Zr1239   2.339       .  S
O1220     Zr1236   2.424       .  S
O1220      C1243   1.289       .  A
O1221     Zr1237   2.440       .  S
O1221      C1244   1.293       .  A
O1222     Zr1238   2.456       .  S
O1222      C1245   1.296       .  A
O1223     Zr1239   2.441       .  S
O1223      C1246   1.292       .  A
O1224     Zr1239   2.436       .  S
O1224      C1247   1.291       .  A
O1225     Zr1238   2.453       .  S
O1225      C1248   1.296       .  A
O1226     Zr1240   2.462       .  S
O1226      C1249   1.296       .  A
O1227     Zr1240   2.471       .  S
O1227      C1250   1.298       .  A
O1228     Zr1238   2.430       .  S
O1228      C1249   1.289       .  A
O1229     Zr1239   2.436       .  S
O1229      C1250   1.290       .  A
O1230     Zr1236   2.415       .  S
O1230      C1245   1.286       .  A
O1231     Zr1237   2.415       .  S
O1231      C1248   1.286       .  A
O1232     Zr1237   2.418       .  S
O1232      C1247   1.287       .  A
O1233     Zr1236   2.410       .  S
O1233      C1246   1.285       .  A
O1234     Zr1240   2.444       .  S
O1234      C1243   1.294       .  A
O1235     Zr1240   2.435       .  S
O1235      C1244   1.292       .  A
Zr1236     O1242   2.335       .  S
Zr1236     O1254   2.334       .  S
Zr1237     O1241   2.336       .  S
Zr1237     O1252   2.335       .  S
Zr1238     O1242   2.341       .  S
Zr1238     O1252   2.338       .  S
Zr1239     O1241   2.344       .  S
Zr1239     O1254   2.341       .  S
Zr1240     O1241   2.349       .  S
Zr1240     O1242   2.345       .  S
Zr1240     O1254   2.345       .  S
Zr1240     O1252   2.347       .  S
C1243      C1544   1.479       .  S
C1244      C1582   1.482       .  S
C1245      C1514   1.473       .  S
C1246      C1524   1.457       .  S
C1247      C1562   1.458       .  S
C1248      C1572   1.469       .  S
C1249      C1559   1.439       .  S
C1250      C1557   1.445       .  S
H1251      O1252   0.965       .  S
H1253      O1254   0.964       .  S
N1255      H1287   1.035       .  S
N1255      C1259   1.358       .  A
N1256      C1264   1.353       .  A
N1257      H1288   1.035       .  S
N1257      C1261   1.358       .  A
N1258      C1266   1.352       .  A
C1259      C1267   1.387       .  A
C1259      C1275   1.423       .  A
C1260      C1276   1.422       .  A
C1260      C1268   1.388       .  A
C1261      C1269   1.388       .  A
C1261      C1278   1.423       .  A
C1262      C1277   1.422       .  A
C1262      C1270   1.388       .  A
C1263      C1275   1.416       .  A
C1263      C1271   1.387       .  A
C1264      C1278   1.416       .  A
C1264      C1272   1.387       .  A
C1265      C1273   1.388       .  A
C1265      C1276   1.415       .  A
C1266      C1274   1.388       .  A
C1266      C1277   1.415       .  A
C1267      H1279   1.082       .  S
C1268      H1280   1.082       .  S
C1269      H1281   1.082       .  S
C1270      H1282   1.082       .  S
C1271      H1283   1.082       .  S
C1272      H1284   1.082       .  S
C1273      H1285   1.082       .  S
C1274      H1286   1.082       .  S
C1275      C1556   1.460       .  S
C1276      C1553   1.457       .  S
C1277      C1560   1.455       .  S
C1278      C1558   1.461       .  S
O1289     Zr1325   2.428       .  S
O1289      C1300   1.291       .  A
O1290     Zr1324   2.426       .  S
O1290      C1301   1.290       .  A
O1291      C1302   1.297   1_556  A
O1292     Zr1297   2.469       .  S
O1292      C1303   1.297       .  A
O1293     Zr1327   2.434   1_554  S
O1293      C1303   1.290   1_554  A
O1294     Zr1326   2.437       .  S
O1294      C1302   1.291       .  A
O1295     Zr1297   2.442   1_554  S
O1295      C1301   1.294       .  A
O1296     Zr1297   2.448       .  S
O1296      C1300   1.295       .  A
Zr1297     O1298   2.345   1_556  S
Zr1297     O1307   2.342       .  S
O1298     Zr1324   2.336       .  S
O1298     Zr1327   2.336   1_554  S
O1299     Zr1326   2.340   1_556  S
C1300      C1504   1.481       .  S
C1301      C1446   1.482       .  S
C1302      C1465   1.445       .  S
C1303      C1467   1.444       .  S
H1304      O1305   0.968       .  S
O1305     Zr1326   2.339       .  S
H1306      O1307   0.965       .  S
O1307     Zr1325   2.336       .  S
O1307     Zr1327   2.339       .  S
O1308      C1331   1.291       .  A
O1309      C1332   1.290       .  A
O1310     Zr1326   2.441       .  S
O1310      C1333   1.292       .  A
O1311     Zr1327   2.449   1_554  S
O1311      C1334   1.295       .  A
O1312     Zr1327   2.439       .  S
O1312      C1335   1.293       .  A
O1313     Zr1326   2.437   1_556  S
O1313      C1336   1.292       .  A
O1314      C1337   1.297       .  A
O1315     Zr1328   2.464   1_556  S
O1315      C1338   1.296       .  A
O1316      C1337   1.290       .  A
O1317      C1338   1.290       .  A
O1318      C1333   1.286       .  A
O1319      C1336   1.286       .  A
O1320     Zr1325   2.424       .  S
O1320      C1335   1.288       .  A
O1321     Zr1324   2.413       .  S
O1321      C1334   1.286       .  A
O1322     Zr1328   2.445       .  S
O1322      C1331   1.294       .  A
O1323     Zr1328   2.446   1_556  S
O1323      C1332   1.294       .  A
Zr1328     O1329   2.345   1_554  S
Zr1328     O1342   2.345       .  S
C1331      C1456   1.477       .  S
C1332      C1494   1.472       .  S
C1333      C1426   1.459       .  S
C1334      C1436   1.469   1_565  S
C1335      C1474   1.467       .  S
C1336      C1484   1.459       .  S
C1337      C1471   1.444       .  S
C1338      C1470   1.442       .  S
H1339      O1340   0.966       .  S
H1341      O1342   0.964       .  S
N1343      H1375   1.036       .  S
N1343      C1348   1.357   1_554  A
N1343      C1347   1.357   1_554  A
N1344      C1351   1.353   1_556  A
N1344      C1352   1.353   1_556  A
N1345      H1376   1.036       .  S
N1345      C1350   1.358   1_554  A
N1345      C1349   1.356   1_554  A
N1346      C1353   1.353       .  A
N1346      C1354   1.353       .  A
C1347      C1355   1.387       .  A
C1347      C1363   1.421       .  A
C1348      C1364   1.422   1_556  A
C1348      C1356   1.388       .  A
C1349      C1357   1.387       .  A
C1349      C1366   1.422       .  A
C1350      C1365   1.422   1_556  A
C1350      C1358   1.387       .  A
C1351      C1363   1.414   1_554  A
C1351      C1359   1.387       .  A
C1352      C1366   1.415   1_554  A
C1352      C1360   1.388       .  A
C1353      C1361   1.388       .  A
C1353      C1364   1.415       .  A
C1354      C1362   1.387       .  A
C1354      C1365   1.415       .  A
C1355      C1356   1.378       .  A
C1355      H1367   1.082       .  S
C1356      H1368   1.082       .  S
C1357      C1358   1.379       .  A
C1357      H1369   1.082       .  S
C1358      H1370   1.082       .  S
C1359      C1360   1.370       .  A
C1359      H1371   1.082       .  S
C1360      H1372   1.082       .  S
C1361      C1362   1.371       .  A
C1361      H1373   1.082       .  S
C1362      H1374   1.082       .  S
C1363      C1469   1.458       .  S
C1364      C1472   1.459       .  S
C1365      C1466   1.461       .  S
C1366      C1468   1.459       .  S
C1377      C1378   1.535       .  S
C1377      C1381   1.537       .  S
C1377      C1565   1.518       .  S
C1378      H1385   1.085       .  S
C1379      C1380   1.544   1_455  S
C1379      C1459   1.490   1_455  S
C1380      C1384   1.542       .  S
C1380      C1382   1.544   1_655  S
C1380      H1386   1.109       .  S
C1381      H1387   1.082       .  S
C1382      C1449   1.476   1_455  S
C1383      H1388   1.087       .  S
C1383      C1384   1.358   1_455  D
C1384      C1575   1.476       .  S
C1389      C1390   1.538       .  S
C1389      C1395   1.525       .  S
C1389      C1429   1.517       .  S
C1390      H1397   1.083       .  S
C1390      C1391   1.366       .  D
C1391      C1392   1.541   1_565  S
C1391      C1585   1.471       .  S
C1392      C1396   1.542       .  S
C1392      H1398   1.110       .  S
C1393      H1399   1.086       .  S
C1393      C1394   1.368       .  D
C1394      C1595   1.484       .  S
C1395      H1400   1.087       .  S
C1395      C1396   1.359   1_565  D
C1396      C1439   1.478       .  S
C1401      C1402   1.533       .  S
C1401      C1405   1.529       .  S
C1401      C1527   1.517       .  S
C1402      H1409   1.082       .  S
C1403      C1404   1.549   1_455  S
C1403      C1507   1.481   1_455  S
C1404      C1408   1.545       .  S
C1404      C1406   1.549   1_655  S
C1404      H1410   1.109       .  S
C1405      H1411   1.085       .  S
C1406      C1497   1.493   1_455  S
C1407      H1412   1.087       .  S
C1407      C1408   1.359   1_455  D
C1408      C1517   1.482       .  S
C1413      C1419   1.522       .  S
C1413      C1417   1.530       .  S
C1413      C1487   1.520       .  S
C1414      H1421   1.080       .  S
C1414      C1415   1.374       .  D
C1415      C1537   1.497       .  S
C1416      C1420   1.543       .  S
C1416      C1418   1.546       .  S
C1416      H1422   1.109       .  S
C1417      H1423   1.086       .  S
C1417      C1418   1.366       .  D
C1418      C1547   1.482       .  S
C1419      H1424   1.088       .  S
C1419      C1420   1.357       .  D
C1420      C1477   1.477       .  S
C1425      C1426   1.402       .  A
C1425      C1430   1.398       .  A
C1425      H1431   1.084       .  S
C1427      C1428   1.388       .  A
C1427      H1432   1.084       .  S
C1428      H1433   1.084       .  S
C1429      C1430   1.409       .  A
C1430      H1434   1.078       .  S
C1435      C1436   1.408   1_565  A
C1435      C1440   1.404       .  A
C1435      H1441   1.083       .  S
C1436      C1437   1.398       .  A
C1437      C1438   1.388       .  A
C1437      H1442   1.084       .  S
C1438      C1439   1.406       .  A
C1438      H1443   1.083       .  S
C1439      C1440   1.402   1_545  A
C1440      H1444   1.083       .  S
C1445      C1446   1.409       .  A
C1445      C1450   1.397       .  A
C1445      H1451   1.083       .  S
C1447      C1448   1.396       .  A
C1447      H1452   1.083       .  S
C1448      H1453   1.077       .  S
C1449      C1450   1.401       .  A
C1450      H1454   1.083       .  S
C1455      C1456   1.403       .  A
C1455      C1460   1.398       .  A
C1455      H1461   1.083       .  S
C1457      C1458   1.396       .  A
C1457      H1462   1.083       .  S
C1458      H1463   1.082       .  S
C1459      C1460   1.406       .  A
C1460      H1464   1.077       .  S
C1465      C1466   1.213       .  T
C1467      C1468   1.212       .  T
C1469      C1470   1.211       .  T
C1471      C1472   1.212       .  T
C1473      C1474   1.398       .  A
C1473      C1478   1.388       .  A
C1473      H1479   1.084       .  S
C1474      C1475   1.407   1_565  A
C1475      C1476   1.403       .  A
C1475      H1480   1.083       .  S
C1476      C1477   1.402   1_545  A
C1476      H1481   1.083       .  S
C1477      C1478   1.407       .  A
C1478      H1482   1.084       .  S
C1483      C1484   1.400   1_545  A
C1483      C1488   1.394       .  A
C1483      H1489   1.084       .  S
C1484      C1485   1.396       .  A
C1485      C1486   1.392       .  A
C1485      H1490   1.084       .  S
C1486      C1487   1.412       .  A
C1486      H1491   1.084       .  S
C1487      C1488   1.407   1_565  A
C1488      H1492   1.077       .  S
C1493      C1498   1.400       .  A
C1493      H1499   1.083       .  S
C1494      C1495   1.401   1_655  A
C1495      C1496   1.393       .  A
C1495      H1500   1.084       .  S
C1496      C1497   1.408   1_455  A
C1496      H1501   1.082       .  S
C1498      H1502   1.076       .  S
C1503      C1504   1.407   1_455  A
C1503      C1508   1.396       .  A
C1503      H1509   1.083       .  S
C1505      C1506   1.397       .  A
C1505      H1510   1.083       .  S
C1506      H1511   1.076       .  S
C1507      C1508   1.404   1_655  A
C1508      H1512   1.083       .  S
C1513      C1514   1.398       .  A
C1513      C1518   1.389       .  A
C1513      H1519   1.084       .  S
C1514      C1515   1.409       .  A
C1515      C1516   1.405       .  A
C1515      H1520   1.083       .  S
C1516      C1517   1.403       .  A
C1516      H1521   1.083       .  S
C1517      C1518   1.407       .  A
C1518      H1522   1.083       .  S
C1523      C1524   1.395       .  A
C1523      C1528   1.390       .  A
C1523      H1529   1.084       .  S
C1524      C1525   1.401       .  A
C1525      C1526   1.397       .  A
C1525      H1530   1.084       .  S
C1526      C1527   1.409       .  A
C1526      H1531   1.078       .  S
C1527      C1528   1.410       .  A
C1528      H1532   1.084       .  S
C1533      C1534   1.403       .  A
C1533      C1538   1.402       .  A
C1533      H1539   1.083       .  S
C1534      C1535   1.405       .  A
C1535      C1536   1.396       .  A
C1535      H1540   1.083       .  S
C1536      C1537   1.408       .  A
C1536      H1541   1.082       .  S
C1537      C1538   1.407       .  A
C1538      H1542   1.075       .  S
C1543      C1544   1.408       .  A
C1543      C1548   1.396       .  A
C1543      H1549   1.083       .  S
C1544      C1545   1.403       .  A
C1545      C1546   1.396       .  A
C1545      H1550   1.083       .  S
C1546      C1547   1.401       .  A
C1546      H1551   1.074       .  S
C1547      C1548   1.404       .  A
C1548      H1552   1.083       .  S
C1553      C1554   1.209       .  T
C1555      C1556   1.212       .  T
C1557      C1558   1.212       .  T
C1559      C1560   1.209       .  T
C1561      C1562   1.396       .  A
C1561      C1566   1.390       .  A
C1561      H1567   1.084       .  S
C1562      C1563   1.400       .  A
C1563      C1564   1.396       .  A
C1563      H1568   1.084       .  S
C1564      C1565   1.409       .  A
C1564      H1569   1.077       .  S
C1565      C1566   1.410       .  A
C1566      H1570   1.084       .  S
C1571      C1572   1.399       .  A
C1571      C1576   1.389       .  A
C1571      H1577   1.084       .  S
C1572      C1573   1.408       .  A
C1573      C1574   1.403       .  A
C1573      H1578   1.083       .  S
C1574      C1575   1.401       .  A
C1574      H1579   1.083       .  S
C1575      C1576   1.406       .  A
C1576      H1580   1.084       .  S
C1581      C1582   1.407       .  A
C1581      C1586   1.396       .  A
C1581      H1587   1.083       .  S
C1582      C1583   1.408       .  A
C1583      C1584   1.397       .  A
C1583      H1588   1.083       .  S
C1584      C1585   1.400       .  A
C1584      H1589   1.083       .  S
C1585      C1586   1.400       .  A
C1586      H1590   1.080       .  S
C1591      C1592   1.405       .  A
C1591      C1596   1.399       .  A
C1591      H1597   1.083       .  S
C1592      C1593   1.406       .  A
C1593      C1594   1.395       .  A
C1593      H1598   1.083       .  S
C1594      C1595   1.405       .  A
C1594      H1599   1.083       .  S
C1595      C1596   1.404       .  A
C1596      H1600   1.080       .  S
