geometry optimzed in LAMMPS
_audit_creation_date              2020-11-30 
_audit_creation_method            'lammps2cif' 
_symmetry_space_group_name_H-M    'P1' 
_symmetry_Int_Tables_number       1 
_symmetry_cell_setting            triclinic 
loop_ 
_symmetry_equiv_pos_as_xyz 
  x,y,z 
_cell_length_a                    39.38891541 
_cell_length_b                    38.50957997229983 
_cell_length_c                    29.17696364420933 
_cell_angle_alpha                 89.39901434748943 
_cell_angle_beta                  89.82195980349452 
_cell_angle_gamma                 89.99701390660259 
loop_ 
_atom_site_label 
_atom_site_type_symbol 
_atom_site_fract_x 
_atom_site_fract_y 
_atom_site_fract_z 
_atom_site_charge 
O1          O  0.26016330  0.19389049  0.36039858    -0.80200
O2          O  0.25495029  0.18645253  0.62543107    -0.81800
O3          O  0.30958345  0.14896658  0.49720602    -0.78800
O4          O  0.19943348  0.15823786  0.49659122    -0.77200
O5          O  0.16208094  0.20348511  0.49304113    -0.79000
O6          O  0.35292920  0.18825319  0.49250281    -0.79900
O7          O  0.25171612  0.14898585  0.56522968    -0.81200
O8          O  0.25684722  0.15368382  0.41878357    -0.81500
Eu9        Eu  0.25661654  0.18168985  0.49311784     2.39200
O10         O  0.22462218  0.21771546  0.54050803    -0.89000
O11         O  0.29246961  0.21496617  0.44553229    -0.92600
C12         C  0.25869603  0.16208407  0.37602600     1.02000
C13         C  0.25211104  0.15530812  0.60855596     1.01900
C14         C  0.34119089  0.15725012  0.49547602     1.01800
C15         C  0.16934522  0.17112445  0.49631104     0.99700
H16         H  0.30499493  0.19619749  0.56115811     0.29400
O17         O  0.29184569  0.21229102  0.54301023    -1.01400
H18         H  0.21085373  0.20576746  0.42532815     0.29500
O19         O  0.22623725  0.21917547  0.44376941    -1.04000
O20         O  0.26204091  0.30692893  0.62930792    -0.81200
O21         O  0.26459444  0.31494981  0.36416119    -0.80700
O22         O  0.35603773  0.24117473  0.56938009    -0.79200
O23         O  0.16500177  0.25591236  0.56354032    -0.82500
O24         O  0.16601861  0.25746006  0.41928682    -0.80400
O25         O  0.35794368  0.24519161  0.42219570    -0.79000
O26         O  0.32341523  0.34360022  0.50308940    -0.80500
O27         O  0.21478768  0.35253020  0.49910409    -0.82500
O28         O  0.36085607  0.29841265  0.50028681    -0.79200
O29         O  0.17138617  0.31370443  0.49129820    -0.81900
O30         O  0.31748363  0.24474197  0.62824430    -0.77600
O31         O  0.32112132  0.25028633  0.36184184    -0.77600
O32         O  0.20340035  0.25643531  0.35948490    -0.77300
O33         O  0.19937316  0.24848139  0.62544449    -0.80800
O34         O  0.26795909  0.34708338  0.57156699    -0.80200
O35         O  0.26847210  0.35197636  0.42462847    -0.78500
Eu36       Eu  0.25929249  0.24778833  0.59274980     2.39800
Eu37       Eu  0.26219974  0.25336242  0.39583550     2.39600
Eu38       Eu  0.32780622  0.24550705  0.49526424     2.38400
Eu39       Eu  0.19557523  0.25598276  0.49181452     2.39900
Eu40       Eu  0.26684676  0.31923975  0.49686482     2.39800
O41         O  0.23124007  0.28983626  0.44566022    -0.92900
O42         O  0.29641017  0.28071047  0.54472331    -0.91800
C43         C  0.26533492  0.33877244  0.61433647     1.02200
C44         C  0.26664625  0.34606885  0.38126026     1.00900
C45         C  0.34827378  0.24207831  0.61228561     1.00300
C46         C  0.16946907  0.25154411  0.60669038     1.02300
C47         C  0.17262364  0.25781125  0.37618916     1.01300
C48         C  0.35146768  0.24699814  0.37897842     1.00100
C49         C  0.35350360  0.33076140  0.50355934     1.00200
C50         C  0.18331754  0.34447150  0.49568542     1.02800
H51         H  0.31402860  0.29830115  0.42974614     0.30200
O52         O  0.29821052  0.28404523  0.44700801    -1.05100
H53         H  0.21565632  0.30172469  0.56145385     0.32200
O54         O  0.22963254  0.28649283  0.54321274    -1.07700
N55         N  0.46119820  0.49516020  0.51857665    -0.36700
N56         N  0.00721718  0.05267936  0.51611730    -0.57300
N57         N  0.06313117  0.50550147  0.51458915    -0.36700
N58         N  0.01717350  0.44784650  0.51691589    -0.57300
C59         C  0.44065259  0.02105106  0.50398383     0.26900
C60         C  0.44584200  0.46513985  0.50780523     0.26900
C61         C  0.07796972  0.03553255  0.50163720     0.26900
C62         C  0.08335205  0.47973909  0.49977552     0.26900
C63         C  0.47809663  0.06991933  0.52307731     0.35500
C64         C  0.03228474  0.07538556  0.52418788     0.35500
C65         C  0.49237169  0.42512253  0.52748651     0.35500
C66         C  0.04659018  0.43066571  0.52239043     0.35500
C67         C  0.41186518  0.00741441  0.48375831    -0.22000
C68         C  0.41520563  0.47181621  0.48608601    -0.22000
C69         C  0.10799908  0.02891651  0.47836095    -0.22000
C70         C  0.11148218  0.49343693  0.47732191    -0.22000
C71         C  0.48452443  0.10383189  0.53596243    -0.23100
C72         C  0.01918069  0.10726400  0.53697867    -0.23000
C73         C  0.50597304  0.39321652  0.53992261    -0.23100
C74         C  0.04059449  0.39668656  0.53637087    -0.23000
C75         C  0.44629482  0.05642443  0.51180438    -0.18400
C76         C  0.45789119  0.43203724  0.52007399    -0.18400
C77         C  0.07817957  0.44446192  0.50960481    -0.18400
C78         C  0.06628107  0.06857803  0.51385476    -0.18400
H79         H  0.39058185  0.02154196  0.46939715     0.14500
H80         H  0.39697495  0.45308782  0.47378435     0.14500
H81         H  0.12577122  0.04769296  0.46435756     0.14500
H82         H  0.13248707  0.47939893  0.46230377     0.14500
H83         H  0.46621016  0.12420077  0.54228176     0.12800
H84         H  0.03305138  0.13084520  0.54414261     0.12800
H85         H  0.49236426  0.36965203  0.54874714     0.12800
H86         H  0.05911801  0.37634690  0.54209958     0.12800
H87         H  0.48220990  0.49770772  0.53986039     0.26100
H88         H  0.04287729  0.50293937  0.53740530     0.26100
O89         O  0.48909968  0.43845950  0.86186366    -0.80200
O90         O  0.48688402  0.43312009  0.12592904    -0.81800
O91         O  0.04757553  0.40434846  0.99948004    -0.78800
O92         O  0.43822495  0.39623476  0.99713062    -0.77200
O93         O  0.39473203  0.43545938  0.99520271    -0.79000
O94         O  0.08520335  0.44938490  0.00045761    -0.79900
O95         O  0.49113363  0.39697221  0.06478754    -0.81200
O96         O  0.49299958  0.39935964  0.92093101    -0.81500
Eu97       Eu  0.49084656  0.42918300  0.99389486     2.39200
O98         O  0.45448009  0.45979204  0.04290145    -0.89000
O99         O  0.02310301  0.46588395  0.94658010    -0.92600
C100        C  0.49129401  0.40673253  0.87787453     1.02000
C101        C  0.48910386  0.40216121  0.10794324     1.01900
C102        C  0.07774185  0.41696278  0.00206383     1.01800
C103        C  0.40664672  0.40449899  0.99744098     0.99700
H104        H  0.03639171  0.45079644  0.06243184     0.29400
O105        O  0.02124149  0.46476454  0.04395940    -1.01400
H106        H  0.44120047  0.44556003  0.92739377     0.29500
O107        O  0.45472588  0.46102597  0.94568537    -1.04000
O108        O  0.48171385  0.05545042  0.12960311    -0.81200
O109        O  0.48687241  0.05912703  0.86456553    -0.80700
O110        O  0.08219092  0.50493668  0.06886173    -0.79200
O111        O  0.38827367  0.49005431  0.06663184    -0.82500
O112        O  0.39039893  0.99307629  0.92157878    -0.80400
O113        O  0.08373978  0.00429862  0.92496690    -0.79000
O114        O  0.03423716  0.09970584  0.00233466    -0.80500
O115        O  0.42384852  0.09032488  0.00139501    -0.82500
O116        O  0.07713117  0.06001935  0.99867400    -0.79200
O117        O  0.38608731  0.04539121  0.99806079    -0.81900
O118        O  0.04442742  0.49820132  0.12816298    -0.77600
O119        O  0.04636353  0.99833080  0.86546199    -0.77600
O120        O  0.42837635  0.99787622  0.86220902    -0.77300
O121        O  0.42528227  0.49351294  0.12687538    -0.80800
O122        O  0.47872397  0.09537050  0.07110826    -0.80200
O123        O  0.48154277  0.09807011  0.92342098    -0.78500
Eu124      Eu  0.48507112  0.49545208  0.09419376     2.39800
Eu125      Eu  0.48681352  0.99851302  0.89779608     2.39600
Eu126      Eu  0.05245501  0.50252826  0.99653806     2.38400
Eu127      Eu  0.41952674  0.49290984  0.99462089     2.39900
Eu128      Eu  0.48120949  0.06668740  0.99698265     2.39800
O129        O  0.45054597  0.03070202  0.94721453    -0.92900
O130        O  0.01635669  0.03365101  0.04553833    -0.91800
C131        C  0.47940926  0.08730847  0.11404146     1.02200
C132        C  0.48488901  0.09047066  0.88068083     1.00900
C133        C  0.07510513  0.50217663  0.11176442     1.00300
C134        C  0.39478979  0.49127188  0.10976952     1.02300
C135        C  0.39767663  0.99519066  0.87864671     1.01300
C136        C  0.07686920  0.00122032  0.88215620     1.00100
C137        C  0.06585225  0.09115233  0.00181547     1.00200
C138        C  0.39363597  0.07760680  0.00175921     1.02800
H139        H  0.03145808  0.05116153  0.93054521     0.30200
O140        O  0.01735501  0.03537680  0.94812193    -1.05100
H141        H  0.43447389  0.04188755  0.06283270     0.32200
O142        O  0.45002949  0.02861142  0.04433064    -1.07700
N143        N  0.28846949  0.24363985  0.03095763    -0.36700
N144        N  0.23315260  0.19591058  0.02724444    -0.57300
N145        N  0.18605106  0.25256069  0.02730943    -0.36700
N146        N  0.24095004  0.30048265  0.03095963    -0.57300
C147        C  0.30444624  0.21421265  0.01878865     0.26900
C148        C  0.30854599  0.27021423  0.01773762     0.26900
C149        C  0.16673357  0.22661909  0.01097284     0.26900
C150        C  0.17078914  0.28257290  0.01529391     0.26900
C151        C  0.25824731  0.17369389  0.03788158     0.35500
C152        C  0.20404616  0.17854309  0.03436848     0.35500
C153        C  0.26983989  0.31765420  0.03952966     0.35500
C154        C  0.21544926  0.32232831  0.04096018     0.35500
C155        C  0.33539215  0.22202497  0.99836170    -0.22000
C156        C  0.33797465  0.25759972  0.99761420    -0.22000
C157        C  0.13885016  0.24019674  0.98811471    -0.22000
C158        C  0.14140402  0.27573037  0.99086657    -0.22000
C159        C  0.24521314  0.14205470  0.05250166    -0.23100
C160        C  0.21053594  0.14519550  0.05044255    -0.23000
C161        C  0.26285917  0.35062872  0.05568581    -0.23100
C162        C  0.22806792  0.35350917  0.05699693    -0.23000
C163        C  0.29234320  0.18061160  0.02829917    -0.18400
C164        C  0.30179426  0.30530844  0.02637168    -0.18400
C165        C  0.18163644  0.31562493  0.02922548    -0.18400
C166        C  0.17247703  0.19119507  0.01993664    -0.18400
H167        H  0.35418341  0.20399874  0.98561500     0.14500
H168        H  0.35924873  0.27243498  0.98434303     0.14500
H169        H  0.11850515  0.22598283  0.97196759     0.14500
H170        H  0.12343705  0.29435926  0.97713436     0.14500
H171        H  0.25922119  0.11889082  0.06193833     0.12800
H172        H  0.19226972  0.12490277  0.05789513     0.12800
H173        H  0.28089534  0.37075268  0.06412383     0.12800
H174        H  0.21379078  0.37635575  0.06651590     0.12800
H175        H  0.26696798  0.24530274  0.05165981     0.26100
H176        H  0.20595448  0.24991691  0.05051115     0.26100
C177        C  0.04377624  0.24569362  0.27312316     0.86400
C178        C  0.03834927  0.21237970  0.24544867    -0.53900
C179        C  0.50780118  0.21038853  0.22316959     0.09300
C180        C  0.48569981  0.24367052  0.22920643     0.20300
C181        C  0.03864134  0.27551222  0.23920496    -0.54600
C182        C  0.50828104  0.27564105  0.21727018     0.09400
C183        C  0.51155702  0.24663141  0.30443334    -0.56700
C184        C  0.48113579  0.24555782  0.28133729     0.10000
H185        H  0.05668251  0.19143621  0.24511829     0.14500
H186        H  0.46120696  0.24316888  0.21052283     0.00200
H187        H  0.05688137  0.29652161  0.23522646     0.14800
H188        H  0.51244083  0.24708620  0.34154372     0.14600
C189        C  0.20405913  0.50089931  0.21584545     0.86400
C190        C  0.21008799  0.47101498  0.25041268    -0.53900
C191        C  0.23991507  0.47290289  0.27417473     0.09300
C192        C  0.26113618  0.50588618  0.26176269     0.20300
C193        C  0.20699278  0.03381244  0.24413102    -0.54600
C194        C  0.23700201  0.03798253  0.26666649     0.09400
C195        C  0.23663647  0.49989616  0.18590310    -0.54100
C196        C  0.26658021  0.50293161  0.20970733     0.10000
H197        H  0.19416632  0.44815029  0.25308142     0.14500
H198        H  0.28533853  0.50742834  0.28093776     0.00200
H199        H  0.18643925  0.05248965  0.24573318     0.14800
H200        H  0.23607902  0.49615424  0.14909691     0.14600
C201        C  0.03951648  0.24860625  0.71163203     0.86400
C202        C  0.03476482  0.28078062  0.74123671    -0.53900
C203        C  0.50580803  0.28119365  0.76697930     0.09300
C204        C  0.48351625  0.24801555  0.76109565     0.20300
C205        C  0.03626928  0.21746783  0.74448213    -0.54600
C206        C  0.50701573  0.21616509  0.77014254     0.09400
C207        C  0.50607317  0.24743378  0.68340141    -0.54100
C208        C  0.47687868  0.24644472  0.70911881     0.10000
H209        H  0.05266331  0.30224565  0.74093138     0.14500
H210        H  0.46000962  0.24819215  0.78212008     0.00200
H211        H  0.05508637  0.19686008  0.74499042     0.14800
H212        H  0.50447979  0.24803775  0.64644895     0.14600
C213        C  0.20555439  0.49504763  0.77730543     0.86400
C214        C  0.20890768  0.02656714  0.74494537    -0.53900
C215        C  0.23871820  0.02861303  0.72133490     0.09300
C216        C  0.26291882  0.49734666  0.73088110     0.20300
C217        C  0.21167494  0.46356111  0.74605222    -0.54600
C218        C  0.24174204  0.46379997  0.72248676     0.09400
C219        C  0.23790417  0.49584054  0.80738432    -0.54100
C220        C  0.26798677  0.49697833  0.78324141     0.10000
H221        H  0.18938828  0.04637803  0.74173519     0.14500
H222        H  0.28724196  0.49853085  0.71169744     0.00200
H223        H  0.19493014  0.44150134  0.74363462     0.14800
H224        H  0.23699389  0.49509777  0.84457545     0.14600
C225        C  0.10563532  0.50353068  0.14243855    -0.00300
C226        C  0.13277630  0.02506424  0.12908915    -0.12100
C227        C  0.16424911  0.02416059  0.15159140     0.02000
C228        C  0.17000298  0.50086232  0.18892720    -0.00300
C229        C  0.14201210  0.48021793  0.20330550    -0.12100
C230        C  0.11052099  0.48105494  0.18027182     0.01900
H231        H  0.12964649  0.04260753  0.10004613     0.14800
H232        H  0.14398387  0.46340713  0.23298362     0.14800
C233        C  0.08430126  0.45714660  0.19469426     0.36500
C234        C  0.19033764  0.04745239  0.13474877     0.36400
N235        N  0.06340151  0.43776677  0.20612165    -0.43800
N236        N  0.21130227  0.06578748  0.12070441    -0.43800
C237        C  0.36409026  0.49115739  0.14032406    -0.00300
C238        C  0.35980003  0.01730802  0.17334212    -0.12100
C239        C  0.32843682  0.02202506  0.19618240     0.02000
C240        C  0.30085355  0.49944942  0.18745567    -0.00300
C241        C  0.30546604  0.47291787  0.15561181    -0.12100
C242        C  0.33600794  0.46914445  0.13149986     0.01900
H243        H  0.38032116  0.03552591  0.17901401     0.14800
H244        H  0.28461545  0.45537579  0.14852856     0.14800
C245        C  0.33658274  0.44346454  0.09598141     0.36500
C246        C  0.32473997  0.05189116  0.22520246     0.36400
N247        N  0.33541792  0.42328372  0.06700451    -0.43800
N248        N  0.32231340  0.07623347  0.24789885    -0.43800
C249        C  0.48975701  0.36931370  0.13708551    -0.00300
C250        C  0.49364909  0.37110905  0.18487680    -0.12100
C251        C  0.49726242  0.34074311  0.21191378     0.02000
C252        C  0.49727387  0.30748380  0.19147205    -0.00300
C253        C  0.99112794  0.30527559  0.14466001    -0.12100
C254        C  0.98733300  0.33529789  0.11741795     0.01900
H255        H  0.49467140  0.39624969  0.20116934     0.14800
H256        H  0.99079381  0.27988215  0.12885882     0.14800
C257        C  0.98141657  0.32940858  0.06921945     0.36500
C258        C  0.50095213  0.34421622  0.26086943     0.36400
N259        N  0.97679070  0.32415849  0.03074512    -0.43800
N260        N  0.50380988  0.34662717  0.30017010    -0.43800
C261        C  0.47954303  0.11768129  0.14651897    -0.00300
C262        C  0.99512533  0.11424848  0.18959604    -0.12100
C263        C  0.00316357  0.14355112  0.21613852     0.02000
C264        C  0.49585613  0.17772400  0.19970971    -0.00300
C265        C  0.47723591  0.18086071  0.15907174    -0.12100
C266        C  0.46899439  0.15169073  0.13266993     0.01900
H267        H  0.00276281  0.08869563  0.20164815     0.14800
H268        H  0.47057144  0.20651948  0.14634966     0.14800
C269        C  0.45146865  0.15837765  0.09007571     0.36500
C270        C  0.01887899  0.13731810  0.26009799     0.36400
N271        N  0.43792299  0.16455580  0.05580759    -0.43800
N272        N  0.03171055  0.13201835  0.29511534    -0.43800
C273        C  0.15709324  0.34439456  0.02696279    -0.00300
C274        C  0.16190052  0.37068831  0.99402912    -0.12100
C275        C  0.13653664  0.39518651  0.98580522     0.02000
C276        C  0.10555678  0.39262075  0.00995229    -0.00300
C277        C  0.10134967  0.36712292  0.04417242    -0.12100
C278        C  0.12720680  0.34346941  0.05349520     0.01900
H279        H  0.18503571  0.37133167  0.97376392     0.14800
H280        H  0.07800472  0.36598980  0.06399717     0.14800
C281        C  0.12279204  0.31843893  0.09028792     0.36500
C282        C  0.14235244  0.42159114  0.95113281     0.36400
N283        N  0.11969883  0.29842768  0.11987828    -0.43800
N284        N  0.14720434  0.44280187  0.92350053    -0.43800
C285        C  0.38207827  0.37680466  0.00333007    -0.00300
C286        C  0.35908644  0.37036205  0.96796090    -0.12100
C287        C  0.33242412  0.34713028  0.97498542     0.02000
C288        C  0.32894793  0.33040973  0.01789137    -0.00300
C289        C  0.35204244  0.33659176  0.05298548    -0.12100
C290        C  0.37848519  0.35994375  0.04615021     0.01900
H291        H  0.36160303  0.38398885  0.93538542     0.14800
H292        H  0.34875830  0.32386136  0.08605852     0.14800
C293        C  0.39879866  0.36923041  0.08516756     0.36500
C294        C  0.30882084  0.34093853  0.93816751     0.36400
N295        N  0.41391469  0.37705495  0.11734010    -0.43800
N296        N  0.28985228  0.33592127  0.90875829    -0.43800
C297        C  0.31601247  0.15145105  0.02446742    -0.00300
C298        C  0.31387855  0.12991643  0.98616570    -0.12100
C299        C  0.33831838  0.10438005  0.97893576     0.02000
C300        C  0.36579475  0.10158454  0.00946906    -0.00300
C301        C  0.36668160  0.12170716  0.04915986    -0.12100
C302        C  0.34167656  0.14640593  0.05714057     0.01900
H303        H  0.29348012  0.13353398  0.96167593     0.14800
H304        H  0.38680662  0.11789132  0.07399325     0.14800
C305        C  0.34241623  0.16614537  0.09895152     0.36500
C306        C  0.33497116  0.08180493  0.93997690     0.36400
N307        N  0.34246635  0.18192953  0.13248287    -0.43800
N308        N  0.33200242  0.06337836  0.90916796    -0.43800
C309        C  0.14457102  0.16642110  0.01317828    -0.00300
C310        C  0.11637087  0.16830983  0.04225001    -0.12100
C311        C  0.09004699  0.14435433  0.03869918     0.02000
C312        C  0.09156943  0.11848031  0.00497082    -0.00300
C313        C  0.11999178  0.11657401  0.97601970    -0.12100
C314        C  0.14641821  0.14037094  0.97972331     0.01900
H315        H  0.11554615  0.18786863  0.06875004     0.14800
H316        H  0.12175571  0.09612784  0.95083359     0.14800
C317        C  0.17532097  0.13718698  0.94945480     0.36500
C318        C  0.06374664  0.14493080  0.07295788     0.36400
N319        N  0.19860145  0.13440203  0.92548475    -0.43800
N320        N  0.04338404  0.14558696  0.10147825    -0.43800
C321        C  0.30241286  0.49503770  0.80521682    -0.00300
C322        C  0.32789981  0.01883829  0.79232486    -0.12100
C323        C  0.36013782  0.01837977  0.81352567     0.02000
C324        C  0.36739593  0.99345230  0.84798515    -0.00300
C325        C  0.34234948  0.46883870  0.85921928    -0.12100
C326        C  0.31032105  0.46932514  0.83839889     0.01900
H327        H  0.32235023  0.03856267  0.76663577     0.14800
H328        H  0.34750420  0.44942369  0.88552865     0.14800
C329        C  0.28637088  0.44247369  0.85108290     0.36500
C330        C  0.38434452  0.04511645  0.80161154     0.36400
N331        N  0.26725705  0.42088224  0.86123425    -0.43800
N332        N  0.40365334  0.06667302  0.79206064    -0.43800
C333        C  0.17146521  0.49602600  0.80451660    -0.00300
C334        C  0.14571811  0.47058691  0.79901914    -0.12100
C335        C  0.11434244  0.47250426  0.82216305     0.02000
C336        C  0.10717522  0.00056647  0.85140019    -0.00300
C337        C  0.13219518  0.02619958  0.85667086    -0.12100
C338        C  0.16362410  0.02435535  0.83381500     0.01900
H339        H  0.14919526  0.44867755  0.77696674     0.14800
H340        H  0.12733384  0.04768099  0.87955069     0.14800
C341        C  0.18765519  0.05200047  0.84146517     0.36500
C342        C  0.09068292  0.44409853  0.81772790     0.36400
N343        N  0.20698958  0.07409980  0.84748020    -0.43800
N344        N  0.07204760  0.42104743  0.81439518    -0.43800
C345        C  0.48998080  0.12074479  0.84930502    -0.00300
C346        C  0.46234977  0.13714897  0.82788190    -0.12100
C347        C  0.46662847  0.16832408  0.80244354     0.02000
C348        C  0.49907447  0.18453856  0.79957854    -0.00300
C349        C  0.02628224  0.16806977  0.82229503    -0.12100
C350        C  0.02215547  0.13650201  0.84597427     0.01900
H351        H  0.43734121  0.12558150  0.83103259     0.14800
H352        H  0.05131631  0.17974817  0.82127167     0.14800
C353        C  0.05169701  0.12035190  0.86610085     0.36500
C354        C  0.43731791  0.18170910  0.77866958     0.36400
N355        N  0.07552734  0.10722472  0.88153907    -0.43800
N356        N  0.41302918  0.19132771  0.76028923    -0.43800
C357        C  0.49165676  0.37536731  0.84674763    -0.00300
C358        C  0.98891999  0.34186720  0.86729659    -0.12100
C359        C  0.99133562  0.31115038  0.84183575     0.02000
C360        C  0.49695514  0.31285469  0.79429612    -0.00300
C361        C  0.49837581  0.34597234  0.77308261    -0.12100
C362        C  0.49541962  0.37689940  0.79846580     0.01900
H363        H  0.98538526  0.33928651  0.90402703     0.14800
H364        H  0.50245630  0.34768970  0.73634558     0.14800
C365        C  0.49688377  0.40955467  0.77387511     0.36500
C366        C  0.98991141  0.27822242  0.86590536     0.36400
N367        N  0.49794283  0.43566397  0.75391117    -0.43800
N368        N  0.98872946  0.25192019  0.88540338    -0.43800
C369        C  0.44235886  0.24268102  0.68811262    -0.00300
C370        C  0.41589532  0.26516881  0.70092036    -0.12100
C371        C  0.38406026  0.26421946  0.67886226     0.02000
C372        C  0.37799150  0.23987911  0.64388562    -0.00300
C373        C  0.40386177  0.21605072  0.63321332    -0.12100
C374        C  0.43561278  0.21717594  0.65477441     0.01900
H375        H  0.42063620  0.28466735  0.72666661     0.14800
H376        H  0.39957900  0.19702801  0.60665397     0.14800
C377        C  0.46070749  0.19153942  0.64227295     0.36500
C378        C  0.35933635  0.29051594  0.68979065     0.36400
N379        N  0.48087849  0.17108813  0.63227203    -0.43800
N380        N  0.33976052  0.31190548  0.69839888    -0.43800
C381        C  0.13696149  0.24942040  0.63441402    -0.00300
C382        C  0.13668420  0.25361314  0.68225420    -0.12100
C383        C  0.10591323  0.25291048  0.70762514     0.02000
C384        C  0.07396154  0.24860451  0.68531097    -0.00300
C385        C  0.07482251  0.24306097  0.63790183    -0.12100
C386        C  0.10507222  0.24333208  0.61276075     0.01900
H387        H  0.16048824  0.25768652  0.69997189     0.14800
H388        H  0.05198336  0.23736336  0.61930146     0.14800
C389        C  0.10155084  0.23629836  0.56438395     0.36500
C390        C  0.10807402  0.25651506  0.75674149     0.36400
N391        N  0.09798211  0.23089915  0.52575665    -0.43800
N392        N  0.10990817  0.25939720  0.79610387    -0.43800
C393        C  0.24908837  0.12357018  0.63947141    -0.00300
C394        C  0.23204834  0.09405615  0.62252360    -0.12100
C395        C  0.22974856  0.06285162  0.64788940     0.02000
C396        C  0.24563501  0.05959076  0.69091034    -0.00300
C397        C  0.26264360  0.08881960  0.70832588    -0.12100
C398        C  0.26424925  0.12058544  0.68336796     0.01900
H399        H  0.21979814  0.09543896  0.58933302     0.14800
H400        H  0.27385058  0.08715168  0.74217831     0.14800
C401        C  0.28197584  0.14946110  0.70336850     0.36500
C402        C  0.20977612  0.03469282  0.62986219     0.36400
N403        N  0.29610165  0.17270992  0.71937005    -0.43800
N404        N  0.19383564  0.51198267  0.61591340    -0.43800
C405        C  0.26480481  0.36916505  0.64672422    -0.00300
C406        C  0.27490257  0.40216402  0.62963034    -0.12100
C407        C  0.26902485  0.43295722  0.65398524     0.02000
C408        C  0.25333450  0.43165372  0.69742287    -0.00300
C409        C  0.24597658  0.39847744  0.71636003    -0.12100
C410        C  0.25116439  0.36764252  0.69161668     0.01900
H411        H  0.28616582  0.40433492  0.59576556     0.14800
H412        H  0.23499223  0.39657663  0.75041566     0.14800
C413        C  0.24033800  0.33530276  0.71245506     0.36500
C414        C  0.27721577  0.46555476  0.63183035     0.36400
N415        N  0.23148658  0.30952995  0.72941110    -0.43800
N416        N  0.28392880  0.49154571  0.61371724    -0.43800
C417        C  0.36610775  0.12949999  0.49850008    -0.00300
C418        C  0.38895126  0.12522946  0.46209283    -0.12100
C419        C  0.41492641  0.10078948  0.46539624     0.02000
C420        C  0.41805011  0.08071292  0.50572069    -0.00300
C421        C  0.39517868  0.08479632  0.54194040    -0.12100
C422        C  0.36925875  0.10923525  0.53873396     0.01900
H423        H  0.38665874  0.14123314  0.43143022     0.14800
H424        H  0.39826049  0.06955765  0.57314371     0.14800
C425        C  0.34778436  0.11459271  0.57820813     0.36500
C426        C  0.43843754  0.09695304  0.42767680     0.36400
N427        N  0.33100192  0.11879945  0.61027454    -0.43800
N428        N  0.45746839  0.09364560  0.39773878    -0.43800
C429        C  0.14129729  0.14699225  0.50190919    -0.00300
C430        C  0.14295437  0.12299144  0.53822965    -0.12100
C431        C  0.11782090  0.09800985  0.54375068     0.02000
C432        C  0.09060442  0.09729152  0.51271295    -0.00300
C433        C  0.08821838  0.12204381  0.47739246    -0.12100
C434        C  0.11347349  0.14699818  0.47171386     0.01900
H435        H  0.16419537  0.12346779  0.56180268     0.14800
H436        H  0.06735916  0.12087978  0.45325306     0.14800
C437        C  0.11156003  0.17047139  0.43288482     0.36500
C438        C  0.12095689  0.07249032  0.58016150     0.36400
N439        N  0.11002518  0.18900458  0.40149268    -0.43800
N440        N  0.12322285  0.05165808  0.60885726    -0.43800
C441        C  0.15884818  0.37228582  0.49851400    -0.00300
C442        C  0.13966993  0.38043390  0.45964998    -0.12100
C443        C  0.11344203  0.40448227  0.46244828     0.02000
C444        C  0.10684462  0.42069014  0.50452335    -0.00300
C445        C  0.12670435  0.41328785  0.54306703    -0.12100
C446        C  0.15254211  0.38876410  0.54047346     0.01900
H447        H  0.14475329  0.36744593  0.42752619     0.14800
H448        H  0.12114056  0.42574750  0.57541122     0.14800
C449        C  0.17050846  0.37899643  0.58174829     0.36500
C450        C  0.09320581  0.41170973  0.42228994     0.36400
N451        N  0.18458926  0.37072945  0.61485045    -0.43800
N452        N  0.07693741  0.41757743  0.39017586    -0.43800
C453        C  0.38157192  0.35487922  0.50893747    -0.00300
C454        C  0.38091582  0.37746551  0.54623907    -0.12100
C455        C  0.40682112  0.40158597  0.55207290     0.02000
C456        C  0.43351545  0.40322794  0.51987911    -0.00300
C457        C  0.43452999  0.38014498  0.48315813    -0.12100
C458        C  0.40872832  0.35589093  0.47747687     0.01900
H459        H  0.36004366  0.37635301  0.57058987     0.14800
H460        H  0.45476458  0.38212252  0.45794928     0.14800
C461        C  0.40952198  0.33391068  0.43768433     0.36500
C462        C  0.40507421  0.42497515  0.59042190     0.36400
N463        N  0.41009470  0.31640005  0.40570804    -0.43800
N464        N  0.40353160  0.44371847  0.62110933    -0.43800
C465        C  0.07862167  0.24934403  0.29747538    -0.00300
C466        C  0.08000636  0.26808484  0.33844060    -0.12100
C467        C  0.11029533  0.27280019  0.36251540     0.02000
C468        C  0.14152451  0.25906640  0.34592802    -0.00300
C469        C  0.14114872  0.24369649  0.30239580    -0.12100
C470        C  0.11044998  0.23965884  0.27768084     0.01900
H471        H  0.05726154  0.27995419  0.35202157     0.14800
H472        H  0.16472720  0.23419793  0.28791937     0.14800
C473        C  0.11289147  0.22656939  0.23160457     0.36500
C474        C  0.10771819  0.29183134  0.40480654     0.36400
N475        N  0.11508982  0.21620036  0.19461238    -0.43800
N476        N  0.10473357  0.30662225  0.43888854    -0.43800
C477        C  0.38216386  0.24435350  0.34871778    -0.00300
C478        C  0.40833490  0.22183994  0.36309055    -0.12100
C479        C  0.44005324  0.22130729  0.34119568     0.02000
C480        C  0.44687988  0.24420888  0.30420661    -0.00300
C481        C  0.42023886  0.26553468  0.28806672    -0.12100
C482        C  0.38813112  0.26580304  0.30989986     0.01900
H483        H  0.40407129  0.20457799  0.39217781     0.14800
H484        H  0.42483120  0.28285994  0.25917006     0.14800
C485        C  0.36262226  0.28974231  0.29352298     0.36500
C486        C  0.46463086  0.19590467  0.35640457     0.36400
N487        N  0.34225822  0.30903082  0.28032090    -0.43800
N488        N  0.48421776  0.17540090  0.36849818    -0.43800
C489        C  0.26541449  0.37827051  0.35073198    -0.00300
C490        C  0.26698021  0.41128845  0.37168000    -0.12100
C491        C  0.26034772  0.44234347  0.34741782     0.02000
C492        C  0.25275997  0.44154695  0.30031914    -0.00300
C493        C  0.25378714  0.40905956  0.27833673    -0.12100
C494        C  0.25988706  0.37778604  0.30275077     0.01900
H495        H  0.27168902  0.41306997  0.40816255     0.14800
H496        H  0.24850322  0.40797030  0.24191391     0.14800
C497        C  0.25900608  0.34574611  0.27761436     0.36500
C498        C  0.25827797  0.47402945  0.37315695     0.36400
N499        N  0.25821335  0.32013859  0.25723201    -0.43800
N500        N  0.25628889  0.49865578  0.39537505    -0.43800
C501        C  0.24577490  0.07144277  0.29065592    -0.00300
C502        C  0.26646024  0.07002080  0.32957798    -0.12100
C503        C  0.27268115  0.09955946  0.35599772     0.02000
C504        C  0.25821641  0.13211336  0.34378850    -0.00300
C505        C  0.24010864  0.13446396  0.30267705    -0.12100
C506        C  0.23401353  0.10486406  0.27597893     0.01900
H507        H  0.27753773  0.04558808  0.34012138     0.14800
H508        H  0.22957198  0.15930936  0.29211850     0.14800
C509        C  0.21622603  0.11050681  0.23338698     0.36500
C510        C  0.29429802  0.09542970  0.39554850     0.36400
N511        N  0.20165080  0.11597079  0.19970184    -0.43800
N512        N  0.31163896  0.09167985  0.42713694    -0.43800
O513        O  0.26031655  0.69379723  0.36043802    -0.80200
O514        O  0.25502411  0.68647981  0.62540996    -0.81800
O515        O  0.30954182  0.64887834  0.49715568    -0.78800
O516        O  0.19941435  0.65823586  0.49670572    -0.77200
O517        O  0.16208975  0.70350291  0.49313182    -0.79000
O518        O  0.35291198  0.68813370  0.49242003    -0.79900
O519        O  0.25174853  0.64898227  0.56525290    -0.81200
O520        O  0.25693930  0.65360945  0.41884092    -0.81500
Eu521      Eu  0.25661913  0.68165827  0.49312971     2.39200
O522        O  0.22465649  0.71771911  0.54049720    -0.89000
O523        O  0.29247193  0.71490638  0.44551335    -0.92600
C524        C  0.25885622  0.66199990  0.37608776     1.02000
C525        C  0.25215799  0.65532498  0.60857168     1.01900
C526        C  0.34115358  0.65713451  0.49538458     1.01800
C527        C  0.16933211  0.67114080  0.49644979     0.99700
H528        H  0.30505600  0.69616644  0.56112930     0.29400
O529        O  0.29190383  0.71225324  0.54297335    -1.01400
H530        H  0.21086487  0.70569946  0.42529019     0.29500
O531        O  0.22625439  0.71911370  0.44371555    -1.04000
O532        O  0.26206756  0.80698662  0.62910252    -0.81200
O533        O  0.26463120  0.81482596  0.36392886    -0.80700
O534        O  0.35609857  0.74123557  0.56930239    -0.79200
O535        O  0.16517337  0.75599195  0.56355148    -0.82500
O536        O  0.16603273  0.75746144  0.41926810    -0.80400
O537        O  0.35797550  0.74503230  0.42208743    -0.79000
O538        O  0.32346153  0.84353393  0.50298220    -0.80500
O539        O  0.21477051  0.85249487  0.49874710    -0.82500
O540        O  0.36090712  0.79834431  0.50017009    -0.79200
O541        O  0.17136695  0.81365224  0.49111215    -0.81900
O542        O  0.31756366  0.74486089  0.62817710    -0.77600
O543        O  0.32114495  0.75016441  0.36174923    -0.77600
O544        O  0.20342354  0.75636043  0.35947490    -0.77300
O545        O  0.19950623  0.74857701  0.62548232    -0.80800
O546        O  0.26789757  0.84716008  0.57136022    -0.80200
O547        O  0.26851659  0.85187769  0.42436643    -0.78500
Eu548      Eu  0.25937320  0.74780942  0.59266894     2.39800
Eu549      Eu  0.26223882  0.75328568  0.39576846     2.39600
Eu550      Eu  0.32785490  0.74543919  0.49517416     2.38400
Eu551      Eu  0.19562929  0.75596487  0.49175144     2.39900
Eu552      Eu  0.26688170  0.81922897  0.49669037     2.39800
O553        O  0.23128273  0.78978344  0.44554608    -0.92900
O554        O  0.29644927  0.78069403  0.54455554    -0.91800
C555        C  0.26528265  0.83883770  0.61413161     1.02200
C556        C  0.26667992  0.84595354  0.38100076     1.00900
C557        C  0.34835151  0.74219600  0.61221321     1.00300
C558        C  0.16961518  0.75166470  0.60670751     1.02300
C559        C  0.17264708  0.75778176  0.37617442     1.01300
C560        C  0.35149112  0.74684028  0.37887185     1.00100
C561        C  0.35354762  0.83069127  0.50345991     1.00200
C562        C  0.18329385  0.84443084  0.49537782     1.02800
H563        H  0.31408853  0.79822345  0.42961563     0.30200
O564        O  0.29826587  0.78398559  0.44689644    -1.05100
H565        H  0.21572645  0.80174526  0.56131050     0.32200
O566        O  0.22970315  0.78649613  0.54309583    -1.07700
N567        N  0.46117220  0.99521646  0.51854519    -0.36700
N568        N  0.00721450  0.55264232  0.51596858    -0.57300
N569        N  0.06312326  0.00551573  0.51453877    -0.36700
N570        N  0.01714861  0.94787715  0.51681548    -0.57300
C571        C  0.44069318  0.52095654  0.50386757     0.26900
C572        C  0.44577175  0.96521823  0.50777347     0.26900
C573        C  0.07799711  0.53551232  0.50170968     0.26900
C574        C  0.08332668  0.97975720  0.49966268     0.26900
C575        C  0.47807694  0.56987664  0.52289812     0.35500
C576        C  0.03226375  0.57536501  0.52407211     0.35500
C577        C  0.49232955  0.92515201  0.52722203     0.35500
C578        C  0.04656540  0.93068668  0.52227129     0.35500
C579        C  0.41196741  0.50727673  0.48353830    -0.22000
C580        C  0.41508269  0.97194622  0.48621704    -0.22000
C581        C  0.10805755  0.52888946  0.47851036    -0.22000
C582        C  0.11142737  0.99346427  0.47715352    -0.22000
C583        C  0.48446937  0.60380827  0.53572469    -0.23100
C584        C  0.01912966  0.60724577  0.53679721    -0.23000
C585        C  0.50592836  0.89323501  0.53961623    -0.23100
C586        C  0.04056308  0.89670791  0.53624357    -0.23000
C587        C  0.44628867  0.55633773  0.51163968    -0.18400
C588        C  0.45783820  0.93208783  0.51989614    -0.18400
C589        C  0.07815823  0.94447293  0.50946720    -0.18400
C590        C  0.06628469  0.56855892  0.51387309    -0.18400
H591        H  0.39071387  0.52137241  0.46904207     0.14500
H592        H  0.39680412  0.95324722  0.47396546     0.14500
H593        H  0.12584963  0.54766100  0.46454277     0.14500
H594        H  0.13241286  0.97943291  0.46207697     0.14500
H595        H  0.46613501  0.62416923  0.54198319     0.12800
H596        H  0.03298114  0.63083509  0.54397973     0.12800
H597        H  0.49231633  0.86967393  0.54844752     0.12800
H598        H  0.05908269  0.87636341  0.54196410     0.12800
H599        H  0.48223782  0.99771726  0.53973942     0.26100
H600        H  0.04289734  0.00294379  0.53739906     0.26100
O601        O  0.48909307  0.93845114  0.86216405    -0.80200
O602        O  0.48673389  0.93317536  0.12617641    -0.81800
O603        O  0.04751007  0.90448540  0.99961608    -0.78800
O604        O  0.43821908  0.89620807  0.99705975    -0.77200
O605        O  0.39471057  0.93541366  0.99509538    -0.79000
O606        O  0.08508176  0.94957333  0.00051070    -0.79900
O607        O  0.49102828  0.89706846  0.06500822    -0.81200
O608        O  0.49305128  0.89931859  0.92119368    -0.81500
Eu609      Eu  0.49077595  0.92922204  0.99406063     2.39200
O610        O  0.45437427  0.95976303  0.04308201    -0.89000
O611        O  0.02297911  0.96597387  0.94671880    -0.92600
C612        C  0.49135885  0.90671765  0.87814854     1.02000
C613        C  0.48896006  0.90223211  0.10816666     1.01900
C614        C  0.07765444  0.91714918  0.00214046     1.01800
C615        C  0.40664303  0.90446352  0.99725975     0.99700
H616        H  0.03632954  0.95089566  0.06256350     0.29400
O617        O  0.02116046  0.96485303  0.04410431    -1.01400
H618        H  0.44112749  0.94555415  0.92752345     0.29500
O619        O  0.45463162  0.96102560  0.94583756    -1.04000
O620        O  0.48183678  0.55548792  0.12940656    -0.81200
O621        O  0.48713167  0.55901988  0.86418649    -0.80700
O622        O  0.08200091  0.00504779  0.06898279    -0.79200
O623        O  0.38818312  0.98991616  0.06680120    -0.82500
O624        O  0.39053692  0.49303788  0.92142495    -0.80400
O625        O  0.08387837  0.50413890  0.92491092    -0.79000
O626        O  0.03434134  0.59964727  0.00270753    -0.80500
O627        O  0.42411482  0.59044964  0.00066926    -0.82500
O628        O  0.07723643  0.55994998  0.99892613    -0.79200
O629        O  0.38629887  0.54555885  0.99754025    -0.81900
O630        O  0.04430212  0.99819880  0.12833399    -0.77600
O631        O  0.04654313  0.49817165  0.86536270    -0.77600
O632        O  0.42852406  0.49788190  0.86207036    -0.77300
O633        O  0.42518497  0.99353733  0.12703556    -0.80800
O634        O  0.47889802  0.59529843  0.07079882    -0.80200
O635        O  0.48199375  0.59797488  0.92304618    -0.78500
Eu636      Eu  0.48496212  0.99545176  0.09435125     2.39800
Eu637      Eu  0.48697168  0.49846553  0.89762063     2.39600
Eu638      Eu  0.05229600  0.00265612  0.99663614     2.38400
Eu639      Eu  0.41942095  0.99286652  0.99478140     2.39900
Eu640      Eu  0.48140368  0.56664388  0.99669663     2.39800
O641        O  0.45069884  0.53067225  0.94699392    -0.92900
O642        O  0.01646659  0.53354248  0.04530006    -0.91800
C643        C  0.47956406  0.58732611  0.11375132     1.02200
C644        C  0.48526160  0.59037373  0.88029109     1.00900
C645        C  0.07495649  0.00221541  0.11189037     1.00300
C646        C  0.39469903  0.99122597  0.10993344     1.02300
C647        C  0.39782528  0.49516908  0.87849992     1.01300
C648        C  0.07703507  0.50105214  0.88209799     1.00100
C649        C  0.06594050  0.59106599  0.00227365     1.00200
C650        C  0.39388198  0.57779104  0.00096983     1.02800
H651        H  0.03174091  0.55105956  0.93034224     0.30200
O652        O  0.01760797  0.53528561  0.94789320    -1.05100
H653        H  0.43460458  0.54197695  0.06257569     0.32200
O654        O  0.45016270  0.52865875  0.04413078    -1.07700
N655        N  0.28827369  0.74379868  0.02910817    -0.36700
N656        N  0.23303562  0.69603567  0.02575046    -0.57300
N657        N  0.18588807  0.75273650  0.02683077    -0.36700
N658        N  0.24079939  0.80065793  0.03007310    -0.57300
C659        C  0.30426466  0.71445115  0.01665796     0.26900
C660        C  0.30832147  0.77044540  0.01610146     0.26900
C661        C  0.16641720  0.72680052  0.01082308     0.26900
C662        C  0.17054543  0.78275446  0.01501645     0.26900
C663        C  0.25822116  0.67376070  0.03580119     0.35500
C664        C  0.20399054  0.67864933  0.03326581     0.35500
C665        C  0.26971489  0.81777078  0.03864539     0.35500
C666        C  0.21534569  0.82247521  0.04035020     0.35500
C667        C  0.33517058  0.72238697  0.99620718    -0.22000
C668        C  0.33772847  0.75795844  0.99577676    -0.22000
C669        C  0.13833742  0.74037057  0.98840987    -0.22000
C670        C  0.14095490  0.77590863  0.99103654    -0.22000
C671        C  0.24530800  0.64204989  0.05033847    -0.23100
C672        C  0.21061880  0.64520535  0.04887005    -0.23000
C673        C  0.26279890  0.85067971  0.05508556    -0.23100
C674        C  0.22801591  0.85358764  0.05653718    -0.23000
C675        C  0.29228437  0.68080167  0.02610777    -0.18400
C676        C  0.30161526  0.80546832  0.02521886    -0.18400
C677        C  0.18150392  0.81580920  0.02879571    -0.18400
C678        C  0.17226304  0.69138467  0.01963289    -0.18400
H679        H  0.35397606  0.70443919  0.98330809     0.14500
H680        H  0.35899775  0.77286983  0.98264313     0.14500
H681        H  0.11784734  0.72614717  0.97260926     0.14500
H682        H  0.12288610  0.79453667  0.97755064     0.14500
H683        H  0.25938753  0.61885334  0.05942275     0.12800
H684        H  0.19241431  0.62488469  0.05647726     0.12800
H685        H  0.28086753  0.87075359  0.06360003     0.12800
H686        H  0.21377234  0.87640002  0.06628487     0.12800
H687        H  0.26685113  0.74534852  0.04997029     0.26100
H688        H  0.20598876  0.75006403  0.04971287     0.26100
C689        C  0.04385622  0.74563265  0.27301582     0.86400
C690        C  0.03846669  0.71236102  0.24523185    -0.53900
C691        C  0.50788454  0.71043246  0.22294921     0.09300
C692        C  0.48573869  0.74365619  0.22909363     0.20300
C693        C  0.03870102  0.77552878  0.23920745    -0.54600
C694        C  0.50827679  0.77566832  0.21726516     0.09400
C695        C  0.51158287  0.74652235  0.30434534    -0.56700
C696        C  0.48116260  0.74545131  0.28123612     0.10000
H697        H  0.05675811  0.69137188  0.24491290     0.14500
H698        H  0.46126010  0.74313541  0.21037125     0.00200
H699        H  0.05691135  0.79657523  0.23533191     0.14800
H700        H  0.51247057  0.74694971  0.34145645     0.14600
C701        C  0.20395364  0.00084461  0.21576925     0.86400
C702        C  0.21001382  0.97093195  0.25026621    -0.53900
C703        C  0.23982204  0.97284370  0.27406022     0.09300
C704        C  0.26098619  0.00590081  0.26175253     0.20300
C705        C  0.20719050  0.53390028  0.24413041    -0.54600
C706        C  0.23721854  0.53800829  0.26664859     0.09400
C707        C  0.23654716  0.99993756  0.18585435    -0.54100
C708        C  0.26646474  0.00300569  0.20970109     0.10000
H709        H  0.19413239  0.94803205  0.25284768     0.14500
H710        H  0.28518187  0.00747188  0.28093898     0.00200
H711        H  0.18669745  0.55265208  0.24569282     0.14800
H712        H  0.23602668  0.99619639  0.14904593     0.14600
C713        C  0.03961806  0.74880744  0.71152491     0.86400
C714        C  0.03490060  0.78093278  0.74120914    -0.53900
C715        C  0.50597281  0.78130973  0.76698430     0.09300
C716        C  0.48366623  0.74813882  0.76105705     0.20300
C717        C  0.03639770  0.71762252  0.74428995    -0.54600
C718        C  0.50717627  0.71626982  0.76999796     0.09400
C719        C  0.50616246  0.74766915  0.68332389    -0.54100
C720        C  0.47698067  0.74663599  0.70907675     0.10000
H721        H  0.05281492  0.80238444  0.74092886     0.14500
H722        H  0.46017934  0.74829623  0.78211937     0.00200
H723        H  0.05521148  0.69701205  0.74466552     0.14800
H724        H  0.50455082  0.74830465  0.64637436     0.14600
C725        C  0.20540490  0.99511394  0.77727028     0.86400
C726        C  0.20901763  0.52657932  0.74512956    -0.53900
C727        C  0.23877772  0.52864995  0.72141627     0.09300
C728        C  0.26283005  0.99731259  0.73094599     0.20300
C729        C  0.21154447  0.96357980  0.74609172    -0.54600
C730        C  0.24163934  0.96376254  0.72258704     0.09400
C731        C  0.23772643  0.99599254  0.80740373    -0.54100
C732        C  0.26783848  0.99704504  0.78331182     0.10000
H733        H  0.18950034  0.54640709  0.74207887     0.14500
H734        H  0.28717878  0.99845305  0.71181705     0.00200
H735        H  0.19469789  0.94162179  0.74344744     0.14800
H736        H  0.23677258  0.99536127  0.84459577     0.14600
C737        C  0.10551202  0.00352212  0.14250231    -0.00300
C738        C  0.13289371  0.52510127  0.12908201    -0.12100
C739        C  0.16435254  0.52422287  0.15163849     0.02000
C740        C  0.16991505  0.00077981  0.18884690    -0.00300
C741        C  0.14192628  0.98015926  0.20328016    -0.12100
C742        C  0.11040818  0.98104292  0.18033093     0.01900
H743        H  0.12977900  0.54262770  0.10001820     0.14800
H744        H  0.14391227  0.96335898  0.23296811     0.14800
C745        C  0.08415814  0.95721661  0.19489391     0.36500
C746        C  0.19046319  0.54747014  0.13474845     0.36400
N747        N  0.06324383  0.93790506  0.20647764    -0.43800
N748        N  0.21143898  0.56575853  0.12062547    -0.43800
C749        C  0.36400589  0.99115977  0.14048420    -0.00300
C750        C  0.35995872  0.51714956  0.17341058    -0.12100
C751        C  0.32860900  0.52184903  0.19629441     0.02000
C752        C  0.30074730  0.99950824  0.18750976    -0.00300
C753        C  0.30543069  0.97283438  0.15589634    -0.12100
C754        C  0.33598456  0.96903143  0.13182664     0.01900
H755        H  0.38053050  0.53527844  0.17923371     0.14800
H756        H  0.28461916  0.95521151  0.14894543     0.14800
C757        C  0.33662036  0.94322257  0.09647727     0.36500
C758        C  0.32499924  0.55161253  0.22551395     0.36400
N759        N  0.33549854  0.92294310  0.06761897    -0.43800
N760        N  0.32264955  0.57587920  0.24836369    -0.43800
C761        C  0.48959704  0.86937177  0.13726924    -0.00300
C762        C  0.49340898  0.87111975  0.18507953    -0.12100
C763        C  0.49701465  0.84072272  0.21205951     0.02000
C764        C  0.49722006  0.80750552  0.19151690    -0.00300
C765        C  0.99123579  0.80535620  0.14466400    -0.12100
C766        C  0.98732104  0.83540535  0.11751751     0.01900
H767        H  0.49432118  0.89624018  0.20143768     0.14800
H768        H  0.99097760  0.77998819  0.12879124     0.14800
C769        C  0.98124052  0.82958048  0.06934181     0.36500
C770        C  0.50036248  0.84409927  0.26107346     0.36400
N771        N  0.97644512  0.82440439  0.03088773    -0.43800
N772        N  0.50288380  0.84642626  0.30042745    -0.43800
C773        C  0.47970961  0.61779563  0.14610123    -0.00300
C774        C  0.99478930  0.61433460  0.18947388    -0.12100
C775        C  0.00287636  0.64364640  0.21598967     0.02000
C776        C  0.49598690  0.67782595  0.19934982    -0.00300
C777        C  0.47783071  0.68103996  0.15835279    -0.12100
C778        C  0.46966286  0.65189073  0.13187696     0.01900
H779        H  0.00198921  0.58873705  0.20185410     0.14800
H780        H  0.47148296  0.70673859  0.14545912     0.14800
C781        C  0.45265333  0.65866359  0.08891665     0.36500
C782        C  0.01822836  0.63745073  0.26019136     0.36400
N783        N  0.43952433  0.66484982  0.05435295    -0.43800
N784        N  0.03079883  0.63221264  0.29539642    -0.43800
C785        C  0.15702086  0.84462067  0.02667800    -0.00300
C786        C  0.16172699  0.87085561  0.99363353    -0.12100
C787        C  0.13636421  0.89537668  0.98556518     0.02000
C788        C  0.10549369  0.89286376  0.00996043    -0.00300
C789        C  0.10141860  0.86746938  0.04433208    -0.12100
C790        C  0.12728929  0.84381458  0.05352005     0.01900
H791        H  0.18477158  0.87143552  0.97317804     0.14800
H792        H  0.07816646  0.86641370  0.06436245     0.14800
C793        C  0.12304713  0.81890472  0.09048615     0.36500
C794        C  0.14206227  0.92177464  0.95084882     0.36400
N795        N  0.12008957  0.79899722  0.12022167    -0.43800
N796        N  0.14680960  0.94300805  0.92321596    -0.43800
C797        C  0.38207551  0.87677540  0.00288656    -0.00300
C798        C  0.35917107  0.87048564  0.96736772    -0.12100
C799        C  0.33242233  0.84734018  0.97417462     0.02000
C800        C  0.32878598  0.83056067  0.01701021    -0.00300
C801        C  0.35179478  0.83658394  0.05225097    -0.12100
C802        C  0.37833406  0.85983913  0.04562684     0.01900
H803        H  0.36181492  0.88417788  0.93485670     0.14800
H804        H  0.34838272  0.82378824  0.08525801     0.14800
C805        C  0.39859772  0.86895036  0.08476938     0.36500
C806        C  0.30889662  0.84129848  0.93721843     0.36400
N807        N  0.41367924  0.87662547  0.11703669    -0.43800
N808        N  0.28999087  0.83640087  0.90769895    -0.43800
C809        C  0.31613823  0.65176483  0.02254792    -0.00300
C810        C  0.31403194  0.62988581  0.98459436    -0.12100
C811        C  0.33852889  0.60434535  0.97772120     0.02000
C812        C  0.36605654  0.60188831  0.00823315    -0.00300
C813        C  0.36700180  0.62247064  0.04750367    -0.12100
C814        C  0.34191318  0.64713651  0.05518075     0.01900
H815        H  0.29357779  0.63320353  0.96011949     0.14800
H816        H  0.38720488  0.61899485  0.07230504     0.14800
C817        C  0.34265713  0.66721132  0.09671115     0.36500
C818        C  0.33516437  0.58142215  0.93912750     0.36400
N819        N  0.34273704  0.68323400  0.13004272    -0.43800
N820        N  0.33214800  0.56274519  0.90859383    -0.43800
C821        C  0.14435103  0.66660365  0.01322449    -0.00300
C822        C  0.11695939  0.66751124  0.04376874    -0.12100
C823        C  0.09082510  0.64328781  0.04060493     0.02000
C824        C  0.09160088  0.61838345  0.00558842    -0.00300
C825        C  0.11928558  0.61736506  0.97532246    -0.12100
C826        C  0.14562500  0.64126318  0.97880644     0.01900
H827        H  0.11673247  0.68637496  0.07115097     0.14800
H828        H  0.12061329  0.59744589  0.94937924     0.14800
C829        C  0.17396364  0.63877834  0.94746967     0.36500
C830        C  0.06581348  0.64227859  0.07660536     0.36400
N831        N  0.19680778  0.63649970  0.92265131    -0.43800
N832        N  0.04664803  0.64152236  0.10662255    -0.43800
C833        C  0.30225267  0.99511469  0.80533772    -0.00300
C834        C  0.32806204  0.51874301  0.79214579    -0.12100
C835        C  0.36030648  0.51829303  0.81332658     0.02000
C836        C  0.36755474  0.49340754  0.84783912    -0.00300
C837        C  0.34219175  0.96886188  0.85930480    -0.12100
C838        C  0.31016146  0.96936785  0.83846957     0.01900
H839        H  0.32250995  0.53844664  0.76642940     0.14800
H840        H  0.34734744  0.94941685  0.88557440     0.14800
C841        C  0.28619814  0.94250795  0.85107084     0.36500
C842        C  0.38453651  0.54498901  0.80133418     0.36400
N843        N  0.26705597  0.92091884  0.86112904    -0.43800
N844        N  0.40387677  0.56650256  0.79172713    -0.43800
C845        C  0.17129762  0.99613309  0.80449636    -0.00300
C846        C  0.14585798  0.97026421  0.79986924    -0.12100
C847        C  0.11447305  0.97220017  0.82300572     0.02000
C848        C  0.10736721  0.50044969  0.85140735    -0.00300
C849        C  0.13264422  0.52572269  0.85738383    -0.12100
C850        C  0.16404967  0.52390303  0.83450446     0.01900
H851        H  0.14965599  0.94790523  0.77871512     0.14800
H852        H  0.12798534  0.54691881  0.88079668     0.14800
C853        C  0.18830630  0.55122542  0.84281110     0.36500
C854        C  0.09120493  0.94335786  0.81966597     0.36400
N855        N  0.20782373  0.57305563  0.84940039    -0.43800
N856        N  0.07288560  0.91996590  0.81728799    -0.43800
C857        C  0.49031192  0.62065436  0.84888008    -0.00300
C858        C  0.46262842  0.63713801  0.82767221    -0.12100
C859        C  0.46684804  0.66838258  0.80235162     0.02000
C860        C  0.49929235  0.68458660  0.79937613    -0.00300
C861        C  0.02657932  0.66794813  0.82175183    -0.12100
C862        C  0.02249990  0.63629399  0.84524910     0.01900
H863        H  0.43761828  0.62558813  0.83092220     0.14800
H864        H  0.05164074  0.67955703  0.82058325     0.14800
C865        C  0.05212218  0.61994103  0.86484788     0.36500
C866        C  0.43746874  0.68188447  0.77884878     0.36400
N867        N  0.07602191  0.60663692  0.87981182    -0.43800
N868        N  0.41313798  0.69162589  0.76068211    -0.43800
C869        C  0.49181600  0.87538180  0.84698066    -0.00300
C870        C  0.98885001  0.84187562  0.86741942    -0.12100
C871        C  0.99133640  0.81119376  0.84188177     0.02000
C872        C  0.49716294  0.81294478  0.79438241    -0.00300
C873        C  0.49873063  0.84609676  0.77327845    -0.12100
C874        C  0.49580226  0.87698461  0.79874012     0.01900
H875        H  0.98510934  0.83925167  0.90410933     0.14800
H876        H  0.50293777  0.84787278  0.73657130     0.14800
C877        C  0.49763094  0.90968544  0.77430025     0.36500
C878        C  0.98983768  0.77822147  0.86583926     0.36400
N879        N  0.49901036  0.93584884  0.75449752    -0.43800
N880        N  0.98863109  0.75186828  0.88521365    -0.43800
C881        C  0.44244475  0.74283993  0.68809101    -0.00300
C882        C  0.41592017  0.76522347  0.70101239    -0.12100
C883        C  0.38408768  0.76427036  0.67892681     0.02000
C884        C  0.37808407  0.74002644  0.64380831    -0.00300
C885        C  0.40400872  0.71628824  0.63304059    -0.12100
C886        C  0.43575103  0.71742071  0.65461658     0.01900
H887        H  0.42060974  0.78465268  0.72686625     0.14800
H888        H  0.39977587  0.69732875  0.60638795     0.14800
C889        C  0.46090090  0.69189298  0.64193765     0.36500
C890        C  0.35929623  0.79046954  0.68998636     0.36400
N891        N  0.48111381  0.67153415  0.63176684    -0.43800
N892        N  0.33966227  0.81178009  0.69869508    -0.43800
C893        C  0.13708639  0.74961611  0.63438853    -0.00300
C894        C  0.13679259  0.75372796  0.68223906    -0.12100
C895        C  0.10600764  0.75303299  0.70757234     0.02000
C896        C  0.07405883  0.74884542  0.68520729    -0.00300
C897        C  0.07492364  0.74344653  0.63777133    -0.12100
C898        C  0.10519180  0.74366254  0.61267403     0.01900
H899        H  0.16059585  0.75770249  0.69999892     0.14800
H900        H  0.05207339  0.73789593  0.61911686     0.14800
C901        C  0.10168810  0.73668886  0.56427799     0.36500
C902        C  0.10814915  0.75648909  0.75671180     0.36400
N903        N  0.09816980  0.73133308  0.52563098    -0.43800
N904        N  0.10995849  0.75923934  0.79609459    -0.43800
C905        C  0.24911255  0.62359739  0.63951399    -0.00300
C906        C  0.23220665  0.59402112  0.62249635    -0.12100
C907        C  0.22987711  0.56283509  0.64790015     0.02000
C908        C  0.24563655  0.55964749  0.69101527    -0.00300
C909        C  0.26247751  0.58894201  0.70851783    -0.12100
C910        C  0.26408523  0.62069419  0.68353870     0.01900
H911        H  0.22006353  0.59534442  0.58922938     0.14800
H912        H  0.27355502  0.58733003  0.74245307     0.14800
C913        C  0.28159484  0.64964321  0.70369041     0.36500
C914        C  0.20995978  0.53464794  0.62983467     0.36400
N915        N  0.29553921  0.67294083  0.71985248    -0.43800
N916        N  0.19363045  0.01202984  0.61598066    -0.43800
C917        C  0.26466392  0.86920708  0.64655456    -0.00300
C918        C  0.27479477  0.90222258  0.62957025    -0.12100
C919        C  0.26889764  0.93298346  0.65399570     0.02000
C920        C  0.25316081  0.93163120  0.69740633    -0.00300
C921        C  0.24569831  0.89843104  0.71619968    -0.12100
C922        C  0.25090468  0.86763074  0.69138016     0.01900
H923        H  0.28610638  0.90443054  0.59573820     0.14800
H924        H  0.23463064  0.89648559  0.75020236     0.14800
C925        C  0.23997333  0.83526383  0.71204848     0.36500
C926        C  0.27708429  0.96560818  0.63191371     0.36400
N927        N  0.23104638  0.80945178  0.72882523    -0.43800
N928        N  0.28377513  0.99162681  0.61385673    -0.43800
C929        C  0.36604883  0.62935211  0.49833521    -0.00300
C930        C  0.38900306  0.62522441  0.46201900    -0.12100
C931        C  0.41497146  0.60077432  0.46529634     0.02000
C932        C  0.41800620  0.58057653  0.50552492    -0.00300
C933        C  0.39498725  0.58446623  0.54161453    -0.12100
C934        C  0.36904817  0.60888462  0.53841580     0.01900
H935        H  0.38679542  0.64133846  0.43144534     0.14800
H936        H  0.39797029  0.56909612  0.57272477     0.14800
C937        C  0.34740509  0.61401767  0.57777657     0.36500
C938        C  0.43854475  0.59700976  0.42763328     0.36400
N939        N  0.33048645  0.61803705  0.60975705    -0.43800
N940        N  0.45762365  0.59372467  0.39774633    -0.43800
C941        C  0.14126423  0.64703105  0.50208081    -0.00300
C942        C  0.14290725  0.62302771  0.53840216    -0.12100
C943        C  0.11778761  0.59802104  0.54387554     0.02000
C944        C  0.09060162  0.59728131  0.51278581    -0.00300
C945        C  0.08822181  0.62204717  0.47748351    -0.12100
C946        C  0.11345308  0.64703110  0.47186326     0.01900
H947        H  0.16413591  0.62350949  0.56199692     0.14800
H948        H  0.06738232  0.62087539  0.45331349     0.14800
C949        C  0.11152618  0.67053045  0.43306393     0.36500
C950        C  0.12091770  0.57249624  0.58028254     0.36400
N951        N  0.10997126  0.68908578  0.40169665    -0.43800
N952        N  0.12319366  0.55166381  0.60897737    -0.43800
C953        C  0.15881122  0.87224805  0.49822696    -0.00300
C954        C  0.13965930  0.88048313  0.45936428    -0.12100
C955        C  0.11343384  0.90454308  0.46221408     0.02000
C956        C  0.10681949  0.92068566  0.50433321    -0.00300
C957        C  0.12664317  0.91318043  0.54287860    -0.12100
C958        C  0.15246100  0.88863435  0.54023727     0.01900
H959        H  0.14475640  0.86755257  0.42720413     0.14800
H960        H  0.12106081  0.92557167  0.57526314     0.14800
C961        C  0.17035969  0.87873327  0.58151186     0.36500
C962        C  0.09320900  0.91184633  0.42206669     0.36400
N963        N  0.18439042  0.87033868  0.61459845    -0.43800
N964        N  0.07694207  0.91777987  0.38997099    -0.43800
C965        C  0.38160419  0.85481610  0.50883353    -0.00300
C966        C  0.38098725  0.87734033  0.54619863    -0.12100
C967        C  0.40684214  0.90152614  0.55196951     0.02000
C968        C  0.43346557  0.90327056  0.51967313    -0.00300
C969        C  0.43443770  0.88024680  0.48288005    -0.12100
C970        C  0.40866696  0.85595033  0.47723943     0.01900
H971        H  0.36016912  0.87614653  0.57062862     0.14800
H972        H  0.45460818  0.88230585  0.45758852     0.14800
C973        C  0.40936223  0.83406982  0.43734595     0.36500
C974        C  0.40509295  0.92488727  0.59034689     0.36400
N975        N  0.40982686  0.81663762  0.40529150    -0.43800
N976        N  0.40352599  0.94360958  0.62105449    -0.43800
C977        C  0.07868614  0.74926935  0.29740929    -0.00300
C978        C  0.08004695  0.76803890  0.33835377    -0.12100
C979        C  0.11032710  0.77278719  0.36244110     0.02000
C980        C  0.14156174  0.75903482  0.34590022    -0.00300
C981        C  0.14120928  0.74363368  0.30239267    -0.12100
C982        C  0.11052749  0.73957935  0.27765401     0.01900
H983        H  0.05728789  0.77990686  0.35189807     0.14800
H984        H  0.16479676  0.73412866  0.28794939     0.14800
C985        C  0.11301160  0.72648090  0.23158808     0.36500
C986        C  0.10773754  0.79189368  0.40467084     0.36400
N987        N  0.11526063  0.71610614  0.19460434    -0.43800
N988        N  0.10472378  0.80676055  0.43868999    -0.43800
C989        C  0.38217689  0.74418136  0.34859312    -0.00300
C990        C  0.40835574  0.72168007  0.36296441    -0.12100
C991        C  0.44008302  0.72117872  0.34109329     0.02000
C992        C  0.44689951  0.74407532  0.30409214    -0.00300
C993        C  0.42024394  0.76538509  0.28794555    -0.12100
C994        C  0.38813323  0.76563388  0.30977755     0.01900
H995        H  0.40410076  0.70442350  0.39205907     0.14800
H996        H  0.42482735  0.78271678  0.25905321     0.14800
C997        C  0.36259444  0.78954549  0.29340991     0.36500
C998        C  0.46470294  0.69585842  0.35641406     0.36400
N999        N  0.34217789  0.80879269  0.28025037    -0.43800
N1000       N  0.48432659  0.67543682  0.36864050    -0.43800
C1001       C  0.26542388  0.87815212  0.35045862    -0.00300
C1002       C  0.26708626  0.91116934  0.37139898    -0.12100
C1003       C  0.26039941  0.94223337  0.34718453     0.02000
C1004       C  0.25270083  0.94145834  0.30012316    -0.00300
C1005       C  0.25362852  0.90896858  0.27812889    -0.12100
C1006       C  0.25974275  0.87767937  0.30250730     0.01900
H1007       H  0.27189626  0.91294413  0.40785717     0.14800
H1008       H  0.24824208  0.90788906  0.24173298     0.14800
C1009       C  0.25868949  0.84564319  0.27737238     0.36500
C1010       C  0.25834110  0.97390576  0.37295211     0.36400
N1011       N  0.25774910  0.82005125  0.25696752    -0.43800
N1012       N  0.25634171  0.99853144  0.39516902    -0.43800
C1013       C  0.24605580  0.57142921  0.29064752    -0.00300
C1014       C  0.26663794  0.56994728  0.32966478    -0.12100
C1015       C  0.27283812  0.59946358  0.35612968     0.02000
C1016       C  0.25844689  0.63203899  0.34385932    -0.00300
C1017       C  0.24048671  0.63444387  0.30263868    -0.12100
C1018       C  0.23442964  0.60487061  0.27589414     0.01900
H1019       H  0.27764965  0.54549028  0.34023411     0.14800
H1020       H  0.23003799  0.65931361  0.29201905     0.14800
C1021       C  0.21685654  0.61055708  0.23315361     0.36500
C1022       C  0.29435722  0.59528646  0.39577143     0.36400
N1023       N  0.20247370  0.61607574  0.19933370    -0.43800
N1024       N  0.31162510  0.59148282  0.42742272    -0.43800
O1025       O  0.76016047  0.19388811  0.36040526    -0.80200
O1026       O  0.75494645  0.18645092  0.62544328    -0.81800
O1027       O  0.80957330  0.14895551  0.49721934    -0.78800
O1028       O  0.69942737  0.15823499  0.49659639    -0.77200
O1029       O  0.66207694  0.20348378  0.49304308    -0.79000
O1030       O  0.85291962  0.18824225  0.49253081    -0.79900
O1031       O  0.75170908  0.14898402  0.56524211    -0.81200
O1032       O  0.75683933  0.15368136  0.41878921    -0.81500
Eu1033     Eu  0.75661001  0.18168489  0.49312784     2.39200
O1034       O  0.72461751  0.21771427  0.54051670    -0.89000
O1035       O  0.79246554  0.21495906  0.44554395    -0.92600
C1036       C  0.75869029  0.16208169  0.37603143     1.02000
C1037       C  0.75210603  0.15530621  0.60856843     1.01900
C1038       C  0.84118102  0.15723866  0.49549749     1.01800
C1039       C  0.66933982  0.17112277  0.49631284     0.99700
H1040       H  0.80498611  0.19619281  0.56117169     0.29400
O1041       O  0.79183733  0.21228613  0.54302286    -1.01400
H1042       H  0.71084863  0.20576384  0.42533695     0.29500
O1043       O  0.72623207  0.21917127  0.44377910    -1.04000
O1044       O  0.76203765  0.30693452  0.62930733    -0.81200
O1045       O  0.76459421  0.31494130  0.36416329    -0.80700
O1046       O  0.85603149  0.24117339  0.56939210    -0.79200
O1047       O  0.66499119  0.25591524  0.56354159    -0.82500
O1048       O  0.66602046  0.25746021  0.41929057    -0.80400
O1049       O  0.85793426  0.24518055  0.42221449    -0.79000
O1050       O  0.82341375  0.34359373  0.50307600    -0.80500
O1051       O  0.71478432  0.35252711  0.49911375    -0.82500
O1052       O  0.86085322  0.29840425  0.50028244    -0.79200
O1053       O  0.67138198  0.31370253  0.49130576    -0.81900
O1054       O  0.81747806  0.24474018  0.62825677    -0.77600
O1055       O  0.82111395  0.25028036  0.36185915    -0.77600
O1056       O  0.70340438  0.25642898  0.35949159    -0.77300
O1057       O  0.69936510  0.24848385  0.62544475    -0.80800
O1058       O  0.76796145  0.34708960  0.57156753    -0.80200
O1059       O  0.76846740  0.35196953  0.42462899    -0.78500
Eu1060     Eu  0.75928716  0.24778791  0.59275960     2.39800
Eu1061     Eu  0.76219656  0.25335708  0.39584815     2.39600
Eu1062     Eu  0.82779927  0.24549974  0.49527947     2.38400
Eu1063     Eu  0.69557147  0.25598142  0.49182156     2.39900
Eu1064     Eu  0.76684364  0.31923736  0.49687031     2.39800
O1065       O  0.73123609  0.28983460  0.44566652    -0.92900
O1066       O  0.79640575  0.28070903  0.54473385    -0.91800
C1067       C  0.76533446  0.33877847  0.61433680     1.02200
C1068       C  0.76664454  0.34606091  0.38126068     1.00900
C1069       C  0.84826808  0.24207673  0.61229730     1.00300
C1070       C  0.66946060  0.25154656  0.60669138     1.02300
C1071       C  0.67262802  0.25780708  0.37619374     1.01300
C1072       C  0.85145840  0.24698993  0.37899809     1.00100
C1073       C  0.85350156  0.33075395  0.50354399     1.00200
C1074       C  0.68331390  0.34446889  0.49569722     1.02800
H1075       H  0.81402550  0.29829285  0.42975742     0.30200
O1076       O  0.79820686  0.28403841  0.44702021    -1.05100
H1077       H  0.71565390  0.30172352  0.56145957     0.32200
O1078       O  0.72962973  0.28649104  0.54321899    -1.07700
N1079       N  0.96119433  0.49516184  0.51852433    -0.36700
N1080       N  0.50721538  0.05267600  0.51609754    -0.57300
N1081       N  0.56313520  0.50550516  0.51465249    -0.36700
N1082       N  0.51717934  0.44784894  0.51700604    -0.57300
C1083       C  0.94065913  0.02104663  0.50399869     0.26900
C1084       C  0.94583403  0.46514473  0.50774894     0.26900
C1085       C  0.57796555  0.03552943  0.50159077     0.26900
C1086       C  0.58335617  0.47973976  0.49984752     0.26900
C1087       C  0.97809624  0.06992277  0.52308201     0.35500
C1088       C  0.53228526  0.07537836  0.52417215     0.35500
C1089       C  0.99236582  0.42512037  0.52739716     0.35500
C1090       C  0.54659648  0.43067040  0.52248699     0.35500
C1091       C  0.91187777  0.00740366  0.48376532    -0.22000
C1092       C  0.91519306  0.47182686  0.48604474    -0.22000
C1093       C  0.60799415  0.02891762  0.47831036    -0.22000
C1094       C  0.61148411  0.49343381  0.47738440    -0.22000
C1095       C  0.98452035  0.10383932  0.53595288    -0.23100
C1096       C  0.51918505  0.10725405  0.53698175    -0.23000
C1097       C  0.00596663  0.39321182  0.53982305    -0.23100
C1098       C  0.54060119  0.39669281  0.53647504    -0.23000
C1099       C  0.94629608  0.05642199  0.51181118    -0.18400
C1100       C  0.95788418  0.43203948  0.52000171    -0.18400
C1101       C  0.57818444  0.44446377  0.50968873    -0.18400
C1102       C  0.56627926  0.06857201  0.51382504    -0.18400
H1103       H  0.89059740  0.02152689  0.46938879     0.14500
H1104       H  0.89695834  0.45310185  0.47374498     0.14500
H1105       H  0.62576704  0.04769653  0.46431465     0.14500
H1106       H  0.63248852  0.47939348  0.46236896     0.14500
H1107       H  0.96620411  0.12420877  0.54225896     0.12800
H1108       H  0.53305816  0.13083241  0.54415307     0.12800
H1109       H  0.99235749  0.36964760  0.54864789     0.12800
H1110       H  0.55912498  0.37635402  0.54220761     0.12800
H1111       H  0.98221071  0.49770336  0.53980090     0.26100
H1112       H  0.54288184  0.50294808  0.53747057     0.26100
O1113       O  0.98909621  0.43844803  0.86184420    -0.80200
O1114       O  0.98686256  0.43310884  0.12591369    -0.81800
O1115       O  0.54757619  0.40436212  0.99947220    -0.78800
O1116       O  0.93822177  0.39622334  0.99710116    -0.77200
O1117       O  0.89472991  0.43545035  0.99517879    -0.79000
O1118       O  0.58520482  0.44939790  0.00045646    -0.79900
O1119       O  0.99111316  0.39695489  0.06477755    -0.81200
O1120       O  0.99299917  0.39935452  0.92091700    -0.81500
Eu1121     Eu  0.99084434  0.42917030  0.99388574     2.39200
O1122       O  0.95447513  0.45978355  0.04288594    -0.89000
O1123       O  0.52310254  0.46590029  0.94659199    -0.92600
C1124       C  0.99129150  0.40672267  0.87785940     1.02000
C1125       C  0.98907747  0.40214816  0.10793241     1.01900
C1126       C  0.57774250  0.41697549  0.00205532     1.01800
C1127       C  0.90664385  0.40448914  0.99741059     0.99700
H1128       H  0.53639810  0.45081056  0.06243705     0.29400
O1129       O  0.52124531  0.46477784  0.04396736    -1.01400
H1130       H  0.94120061  0.44555262  0.92738469     0.29500
O1131       O  0.95472575  0.46101786  0.94567752    -1.04000
O1132       O  0.98170295  0.05546521  0.12960422    -0.81200
O1133       O  0.98686745  0.05913318  0.86456461    -0.80700
O1134       O  0.58219521  0.50495988  0.06887112    -0.79200
O1135       O  0.88826583  0.49005054  0.06661825    -0.82500
O1136       O  0.89039401  0.99307089  0.92159305    -0.80400
O1137       O  0.58374388  0.00429031  0.92496584    -0.79000
O1138       O  0.53425052  0.09967879  0.00239308    -0.80500
O1139       O  0.92383002  0.09032432  0.00139352    -0.82500
O1140       O  0.57714277  0.05998938  0.99871513    -0.79200
O1141       O  0.88607627  0.04538299  0.99807270    -0.81900
O1142       O  0.54443395  0.49821806  0.12817362    -0.77600
O1143       O  0.54636912  0.99832998  0.86545820    -0.77600
O1144       O  0.92836969  0.99787826  0.86222230    -0.77300
O1145       O  0.92527677  0.49351098  0.12685951    -0.80800
O1146       O  0.97870016  0.09539617  0.07111972    -0.80200
O1147       O  0.98153548  0.09807845  0.92341790    -0.78500
Eu1148     Eu  0.98506539  0.49544139  0.09418121     2.39800
Eu1149     Eu  0.98680766  0.99852126  0.89780294     2.39600
Eu1150     Eu  0.55245578  0.50254400  0.99654851     2.38400
Eu1151     Eu  0.91952123  0.49290395  0.99460731     2.39900
Eu1152     Eu  0.98119879  0.06670460  0.99698827     2.39800
O1153       O  0.95053984  0.03071112  0.94722239    -0.92900
O1154       O  0.51635856  0.03362657  0.04553054    -0.91800
C1155       C  0.97938874  0.08732499  0.11405224     1.02200
C1156       C  0.98488553  0.09047748  0.88067839     1.00900
C1157       C  0.57511111  0.50219629  0.11177418     1.00300
C1158       C  0.89478390  0.49127048  0.10975569     1.02300
C1159       C  0.89767087  0.99518716  0.87866083     1.01300
C1160       C  0.57687430  0.00121863  0.88215379     1.00100
C1161       C  0.56586432  0.09112070  0.00187895     1.00200
C1162       C  0.89361998  0.07759962  0.00176331     1.02800
H1163       H  0.53147212  0.05114940  0.93054465     0.30200
O1164       O  0.51736725  0.03536315  0.94811644    -1.05100
H1165       H  0.93447047  0.04189537  0.06284010     0.32200
O1166       O  0.95002796  0.02862163  0.04433761    -1.07700
N1167       N  0.78845765  0.24364251  0.03092727    -0.36700
N1168       N  0.73314175  0.19590702  0.02719027    -0.57300
N1169       N  0.68603855  0.25255610  0.02727887    -0.36700
N1170       N  0.74093730  0.30048256  0.03094303    -0.57300
C1171       C  0.80444020  0.21421794  0.01876113     0.26900
C1172       C  0.80853748  0.27021954  0.01772514     0.26900
C1173       C  0.66671435  0.22661468  0.01095529     0.26900
C1174       C  0.67077311  0.28256879  0.01527311     0.26900
C1175       C  0.75823824  0.17368801  0.03781107     0.35500
C1176       C  0.70403770  0.17853216  0.03430197     0.35500
C1177       C  0.76982559  0.31765702  0.03951218     0.35500
C1178       C  0.71543475  0.32232611  0.04094127     0.35500
C1179       C  0.83539357  0.22203427  0.99835811    -0.22000
C1180       C  0.83797438  0.25760860  0.99761964    -0.22000
C1181       C  0.63882179  0.24019148  0.98811865    -0.22000
C1182       C  0.64137935  0.27572553  0.99086395    -0.22000
C1183       C  0.74520721  0.14203925  0.05240040    -0.23100
C1184       C  0.71053080  0.14517579  0.05034002    -0.23000
C1185       C  0.76284220  0.35063136  0.05566677    -0.23100
C1186       C  0.72805079  0.35350852  0.05697761    -0.23000
C1187       C  0.79233562  0.18061446  0.02825043    -0.18400
C1188       C  0.80178091  0.30531354  0.02635543    -0.18400
C1189       C  0.68162317  0.31562149  0.02920142    -0.18400
C1190       C  0.67246289  0.19119108  0.01990799    -0.18400
H1191       H  0.85419060  0.20401078  0.98562007     0.14500
H1192       H  0.85925291  0.27244587  0.98436582     0.14500
H1193       H  0.61847013  0.22597635  0.97198829     0.14500
H1194       H  0.62340766  0.29435419  0.97714260     0.14500
H1195       H  0.75921708  0.11887292  0.06182129     0.12800
H1196       H  0.69226706  0.12487746  0.05777680     0.12800
H1197       H  0.78087656  0.37075735  0.06410351     0.12800
H1198       H  0.71377184  0.37635447  0.06649457     0.12800
H1199       H  0.76694859  0.24530080  0.05161525     0.26100
H1200       H  0.70594917  0.24991117  0.05046861     0.26100
C1201       C  0.54379595  0.24567388  0.27311074     0.86400
C1202       C  0.53836866  0.21236274  0.24543227    -0.53900
C1203       C  0.00777690  0.21039579  0.22319700     0.09300
C1204       C  0.98567354  0.24367599  0.22923488     0.20300
C1205       C  0.53867123  0.27549650  0.23919592    -0.54600
C1206       C  0.00824790  0.27564777  0.21728634     0.09400
C1207       C  0.01154188  0.24664869  0.30445404    -0.56700
C1208       C  0.98111861  0.24556930  0.28136469     0.10000
H1209       H  0.55669335  0.19141057  0.24511122     0.14500
H1210       H  0.96117644  0.24317171  0.21056210     0.00200
H1211       H  0.55691583  0.29650267  0.23522576     0.14800
H1212       H  0.01242916  0.24710567  0.34156421     0.14600
C1213       C  0.70406564  0.50089754  0.21585278     0.86400
C1214       C  0.71009503  0.47101161  0.25041665    -0.53900
C1215       C  0.73992177  0.47289944  0.27417998     0.09300
C1216       C  0.76114128  0.50588544  0.26177249     0.20300
C1217       C  0.70698925  0.03381771  0.24412189    -0.54600
C1218       C  0.73699921  0.03798701  0.26665655     0.09400
C1219       C  0.73664349  0.49989830  0.18591193    -0.54100
C1220       C  0.76658657  0.50293380  0.20971730     0.10000
H1221       H  0.69417381  0.44814644  0.25308241     0.14500
H1222       H  0.78534315  0.50742800  0.28094842     0.00200
H1223       H  0.68643795  0.05249786  0.24572058     0.14800
H1224       H  0.73608687  0.49615778  0.14910542     0.14600
C1225       C  0.53951460  0.24860863  0.71164240     0.86400
C1226       C  0.53476447  0.28078398  0.74124365    -0.53900
C1227       C  0.00580697  0.28118614  0.76696942     0.09300
C1228       C  0.98351578  0.24801030  0.76108140     0.20300
C1229       C  0.53626921  0.21747236  0.74449478    -0.54600
C1230       C  0.00701446  0.21616092  0.77012602     0.09400
C1231       C  0.00607536  0.24743266  0.68338878    -0.54100
C1232       C  0.97688041  0.24644388  0.70910518     0.10000
H1233       H  0.55266453  0.30224759  0.74093317     0.14500
H1234       H  0.96000915  0.24818429  0.78210684     0.00200
H1235       H  0.55508608  0.19686457  0.74499621     0.14800
H1236       H  0.00448129  0.24803588  0.64643658     0.14600
C1237       C  0.70554884  0.49505347  0.77731212     0.86400
C1238       C  0.70891288  0.02655886  0.74494929    -0.53900
C1239       C  0.73872202  0.02860393  0.72133676     0.09300
C1240       C  0.76291573  0.49735493  0.73089248     0.20300
C1241       C  0.71167525  0.46356514  0.74606301    -0.54600
C1242       C  0.74174441  0.46380331  0.72250395     0.09400
C1243       C  0.73789587  0.49586335  0.80739313    -0.54100
C1244       C  0.76797932  0.49699819  0.78325276     0.10000
H1245       H  0.68939523  0.04637211  0.74174476     0.14500
H1246       H  0.78724078  0.49853991  0.71171352     0.00200
H1247       H  0.69492202  0.44151541  0.74361208     0.14800
H1248       H  0.73698270  0.49513193  0.84458451     0.14600
C1249       C  0.60564247  0.50354554  0.14244768    -0.00300
C1250       C  0.63276700  0.02504489  0.12908270    -0.12100
C1251       C  0.66423945  0.02414803  0.15158463     0.02000
C1252       C  0.67001118  0.50086352  0.18893226    -0.00300
C1253       C  0.64202023  0.48021804  0.20330456    -0.12100
C1254       C  0.61052831  0.48106264  0.18027411     0.01900
H1255       H  0.62963641  0.04258156  0.10003282     0.14800
H1256       H  0.64399225  0.46340125  0.23297680     0.14800
C1257       C  0.58430753  0.45715539  0.19469535     0.36500
C1258       C  0.69032624  0.04743605  0.13472803     0.36400
N1259       N  0.56340825  0.43777600  0.20612547    -0.43800
N1260       N  0.71128693  0.06576903  0.12066789    -0.43800
C1261       C  0.86408749  0.49115863  0.14031492    -0.00300
C1262       C  0.85979244  0.01731222  0.17334159    -0.12100
C1263       C  0.82842515  0.02203073  0.19617115     0.02000
C1264       C  0.80085901  0.49944973  0.18746467    -0.00300
C1265       C  0.80546680  0.47291837  0.15561930    -0.12100
C1266       C  0.83600504  0.46914441  0.13150011     0.01900
H1267       H  0.88031088  0.03553317  0.17901376     0.14800
H1268       H  0.78461539  0.45537594  0.14854165     0.14800
C1269       C  0.83657719  0.44345983  0.09598781     0.36500
C1270       C  0.82471723  0.05190760  0.22516940     0.36400
N1271       N  0.83541061  0.42327418  0.06701699    -0.43800
N1272       N  0.82227970  0.07625994  0.24784507    -0.43800
C1273       C  0.98971827  0.36930466  0.13708236    -0.00300
C1274       C  0.99360564  0.37110673  0.18487411    -0.12100
C1275       C  0.99721445  0.34074450  0.21191882     0.02000
C1276       C  0.99723074  0.30748353  0.19148355    -0.00300
C1277       C  0.49117361  0.30528313  0.14464717    -0.12100
C1278       C  0.48737831  0.33530915  0.11741222     0.01900
H1279       H  0.99462832  0.39624950  0.20116091     0.14800
H1280       H  0.49084048  0.27989208  0.12883939     0.14800
C1281       C  0.48146787  0.32942588  0.06921087     0.36500
C1282       C  0.00089349  0.34422179  0.26087555     0.36400
N1283       N  0.47684742  0.32418295  0.03073354    -0.43800
N1284       N  0.00374103  0.34663421  0.30017745    -0.43800
C1285       C  0.97951723  0.11768585  0.14654830    -0.00300
C1286       C  0.49510080  0.11424274  0.18960091    -0.12100
C1287       C  0.50314260  0.14354796  0.21613785     0.02000
C1288       C  0.99582944  0.17772620  0.19974515    -0.00300
C1289       C  0.97715270  0.18085585  0.15915137    -0.12100
C1290       C  0.96890728  0.15168539  0.13275031     0.01900
H1291       H  0.50269831  0.08868604  0.20168564     0.14800
H1292       H  0.97044866  0.20651057  0.14645511     0.14800
C1293       C  0.95132992  0.15836617  0.09019443     0.36500
C1294       C  0.51881450  0.13731929  0.26012681     0.36400
N1295       N  0.93774505  0.16454868  0.05595634    -0.43800
N1296       N  0.53161100  0.13202311  0.29516852    -0.43800
C1297       C  0.65708253  0.34439259  0.02693605    -0.00300
C1298       C  0.66188998  0.37068271  0.99399773    -0.12100
C1299       C  0.63653116  0.39518746  0.98578110     0.02000
C1300       C  0.60555478  0.39262969  0.00993729    -0.00300
C1301       C  0.60134744  0.36713381  0.04416037    -0.12100
C1302       C  0.62720189  0.34347664  0.05347946     0.01900
H1303       H  0.68502265  0.37132028  0.97372695     0.14800
H1304       H  0.57800583  0.36600709  0.06399289     0.14800
C1305       C  0.62279475  0.31845690  0.09028635     0.36500
C1306       C  0.64235096  0.42159256  0.95111136     0.36400
N1307       N  0.61971085  0.29845551  0.11989002    -0.43800
N1308       N  0.64721118  0.44280341  0.92348219    -0.43800
C1309       C  0.88207451  0.37679597  0.00330073    -0.00300
C1310       C  0.85908906  0.37034450  0.96792686    -0.12100
C1311       C  0.83242081  0.34712027  0.97495685     0.02000
C1312       C  0.82893306  0.33041618  0.01787265    -0.00300
C1313       C  0.85202246  0.33660572  0.05296997    -0.12100
C1314       C  0.87847061  0.35994994  0.04612921     0.01900
H1315       H  0.86161423  0.38395973  0.93534423     0.14800
H1316       H  0.84873070  0.32388667  0.08604914     0.14800
C1317       C  0.89877588  0.36924826  0.08514923     0.36500
C1318       C  0.80882382  0.34091929  0.93813429     0.36400
N1319       N  0.91388315  0.37708361  0.11732450    -0.43800
N1320       N  0.78986060  0.33589528  0.90872084    -0.43800
C1321       C  0.81600753  0.15145672  0.02442558    -0.00300
C1322       C  0.81387858  0.12992008  0.98612512    -0.12100
C1323       C  0.83831396  0.10437741  0.97891081     0.02000
C1324       C  0.86577543  0.10157198  0.00946551    -0.00300
C1325       C  0.86665039  0.12168850  0.04916076    -0.12100
C1326       C  0.84165823  0.14640458  0.05711632     0.01900
H1327       H  0.79348877  0.13354213  0.96162338     0.14800
H1328       H  0.88675963  0.11785800  0.07401310     0.14800
C1329       C  0.84240310  0.16615943  0.09891445     0.36500
C1330       C  0.83497968  0.08180766  0.93994468     0.36400
N1331       N  0.84246231  0.18195872  0.13243319    -0.43800
N1332       N  0.83202250  0.06338621  0.90912844    -0.43800
C1333       C  0.64455518  0.16641781  0.01317954    -0.00300
C1334       C  0.61643274  0.16821441  0.04239925    -0.12100
C1335       C  0.59012972  0.14422888  0.03889921     0.02000
C1336       C  0.59157926  0.11844518  0.00504618    -0.00300
C1337       C  0.61993176  0.11662008  0.97596388    -0.12100
C1338       C  0.64635045  0.14042780  0.97963982     0.01900
H1339       H  0.61566547  0.18770926  0.06898405     0.14800
H1340       H  0.62165325  0.09622151  0.95070650     0.14800
C1341       C  0.67520226  0.13730375  0.94927214     0.36500
C1342       C  0.56396047  0.14464842  0.07334796     0.36400
N1343       N  0.69844238  0.13456073  0.92522203    -0.43800
N1344       N  0.54372110  0.14516522  0.10203522    -0.43800
C1345       C  0.80240416  0.49505810  0.80522938    -0.00300
C1346       C  0.82789716  0.01883042  0.79233471    -0.12100
C1347       C  0.86013287  0.01837516  0.81354089     0.02000
C1348       C  0.86739163  0.99344611  0.84799780    -0.00300
C1349       C  0.84234742  0.46884215  0.85920747    -0.12100
C1350       C  0.81031399  0.46933933  0.83840203     0.01900
H1351       H  0.82234599  0.03855747  0.76664984     0.14800
H1352       H  0.84750478  0.44942094  0.88550799     0.14800
C1353       C  0.78635750  0.44249700  0.85109869     0.36500
C1354       C  0.88433764  0.04511496  0.80163287     0.36400
N1355       N  0.76723730  0.42091487  0.86126315    -0.43800
N1356       N  0.90364631  0.06667264  0.79208638    -0.43800
C1357       C  0.67146293  0.49602400  0.80453357    -0.00300
C1358       C  0.64576592  0.47051560  0.79915986    -0.12100
C1359       C  0.61439005  0.47242746  0.82230312     0.02000
C1360       C  0.60718066  0.00056919  0.85139771    -0.00300
C1361       C  0.63221908  0.02617868  0.85670734    -0.12100
C1362       C  0.66364448  0.02433296  0.83384373     0.01900
H1363       H  0.64929177  0.44854072  0.77723595     0.14800
H1364       H  0.62737335  0.04764433  0.87961869     0.14800
C1365       C  0.68768856  0.05196266  0.84151576     0.36500
C1366       C  0.59079723  0.44394688  0.81803137     0.36400
N1367       N  0.70703377  0.07404961  0.84754588    -0.43800
N1368       N  0.57222101  0.42083318  0.81483664    -0.43800
C1369       C  0.98998196  0.12075079  0.84930218    -0.00300
C1370       C  0.96235687  0.13713120  0.82783368    -0.12100
C1371       C  0.96663410  0.16830551  0.80239398     0.02000
C1372       C  0.99907220  0.18453853  0.79956448    -0.00300
C1373       C  0.52629058  0.16804589  0.82226860    -0.12100
C1374       C  0.52216191  0.13647333  0.84593613     0.01900
H1375       H  0.93735340  0.12554848  0.83095499     0.14800
H1376       H  0.55133127  0.17970799  0.82122274     0.14800
C1377       C  0.55170794  0.12029353  0.86600890     0.36500
C1378       C  0.93733070  0.18167341  0.77858732     0.36400
N1379       N  0.57553900  0.10713848  0.88140348    -0.43800
N1380       N  0.91304627  0.19127716  0.76018337    -0.43800
C1381       C  0.99165595  0.37535302  0.84673916    -0.00300
C1382       C  0.48883889  0.34188226  0.86728620    -0.12100
C1383       C  0.49126126  0.31116554  0.84182348     0.02000
C1384       C  0.99695056  0.31283954  0.79429286    -0.00300
C1385       C  0.99829100  0.34595341  0.77306259    -0.12100
C1386       C  0.99532675  0.37688124  0.79844355     0.01900
H1387       H  0.48523741  0.33930283  0.90400538     0.14800
H1388       H  0.00230764  0.34766714  0.73631269     0.14800
C1389       C  0.99666490  0.40953263  0.77383123     0.36500
C1390       C  0.48976850  0.27823630  0.86588232     0.36400
N1391       N  0.99761776  0.43563777  0.75384815    -0.43800
N1392       N  0.48853384  0.25193224  0.88537019    -0.43800
C1393       C  0.94236084  0.24268379  0.68810045    -0.00300
C1394       C  0.91589851  0.26517069  0.70091505    -0.12100
C1395       C  0.88405956  0.26421790  0.67886830     0.02000
C1396       C  0.87798723  0.23987696  0.64389377    -0.00300
C1397       C  0.90385700  0.21604932  0.63321534    -0.12100
C1398       C  0.93561108  0.21717665  0.65476712     0.01900
H1399       H  0.92064217  0.28466923  0.72666040     0.14800
H1400       H  0.89957089  0.19702501  0.60665898     0.14800
C1401       C  0.96070308  0.19153660  0.64226799     0.36500
C1402       C  0.85933328  0.29050866  0.68981040     0.36400
N1403       N  0.98087167  0.17108164  0.63227126    -0.43800
N1404       N  0.83975544  0.31189306  0.69843226    -0.43800
C1405       C  0.63695515  0.24942140  0.63441749    -0.00300
C1406       C  0.63667917  0.25363153  0.68225434    -0.12100
C1407       C  0.60591000  0.25292794  0.70762821     0.02000
C1408       C  0.57395838  0.24860585  0.68531924    -0.00300
C1409       C  0.57481856  0.24304274  0.63791432    -0.12100
C1410       C  0.60506725  0.24331417  0.61277070     0.01900
H1411       H  0.66048289  0.25771921  0.69996700     0.14800
H1412       H  0.55197993  0.23732717  0.61932172     0.14800
C1413       C  0.60154713  0.23625943  0.56439963     0.36500
C1414       C  0.60807322  0.25654864  0.75674202     0.36400
N1415       N  0.59797684  0.23084334  0.52577702    -0.43800
N1416       N  0.60990993  0.25944453  0.79610222    -0.43800
C1417       C  0.74908456  0.12356702  0.63948295    -0.00300
C1418       C  0.73204611  0.09405256  0.62253290    -0.12100
C1419       C  0.72974989  0.06284585  0.64789474     0.02000
C1420       C  0.74563777  0.05958321  0.69091449    -0.00300
C1421       C  0.76264338  0.08881266  0.70833326    -0.12100
C1422       C  0.76424589  0.12058048  0.68337920     0.01900
H1423       H  0.71979476  0.09543643  0.58934316     0.14800
H1424       H  0.77385030  0.08714365  0.74218567     0.14800
C1425       C  0.78196845  0.14945640  0.70338508     0.36500
C1426       C  0.70978014  0.03468622  0.62986423     0.36400
N1427       N  0.79609087  0.17270465  0.71939332    -0.43800
N1428       N  0.69383016  0.51198251  0.61591369    -0.43800
C1429       C  0.76480287  0.36917091  0.64672656    -0.00300
C1430       C  0.77490520  0.40217069  0.62963941    -0.12100
C1431       C  0.76902959  0.43296275  0.65399965     0.02000
C1432       C  0.75333377  0.43165761  0.69743370    -0.00300
C1433       C  0.74596734  0.39848020  0.71636195    -0.12100
C1434       C  0.75115675  0.36764663  0.69161581     0.01900
H1435       H  0.78617208  0.40434301  0.59577701     0.14800
H1436       H  0.73497733  0.39657741  0.75041414     0.14800
C1437       C  0.74033062  0.33530516  0.71244983     0.36500
C1438       C  0.77722858  0.46556212  0.63185522     0.36400
N1439       N  0.73148164  0.30952981  0.72940140    -0.43800
N1440       N  0.78394715  0.49155660  0.61375485    -0.43800
C1441       C  0.86609788  0.12948749  0.49851724    -0.00300
C1442       C  0.88893913  0.12521924  0.46210681    -0.12100
C1443       C  0.91491779  0.10078272  0.46540659     0.02000
C1444       C  0.91804592  0.08070479  0.50572908    -0.00300
C1445       C  0.89517517  0.08478393  0.54195088    -0.12100
C1446       C  0.86925302  0.10922121  0.53874942     0.01900
H1447       H  0.88664377  0.14122412  0.43144572     0.14800
H1448       H  0.89826045  0.06954475  0.57315315     0.14800
C1449       C  0.84778226  0.11457657  0.57822773     0.36500
C1450       C  0.93843074  0.09695445  0.42768779     0.36400
N1451       N  0.83100365  0.11878120  0.61029835    -0.43800
N1452       N  0.95746413  0.09365439  0.39775121    -0.43800
C1453       C  0.64129140  0.14699080  0.50190505    -0.00300
C1454       C  0.64294943  0.12298327  0.53821780    -0.12100
C1455       C  0.61781755  0.09799927  0.54372995     0.02000
C1456       C  0.59060252  0.09728478  0.51269031    -0.00300
C1457       C  0.58821503  0.12204334  0.47737790    -0.12100
C1458       C  0.61346788  0.14700103  0.47170915     0.01900
H1459       H  0.66418997  0.12345639  0.56179177     0.14800
H1460       H  0.56735578  0.12088278  0.45323820     0.14800
C1461       C  0.61155106  0.17048392  0.43289069     0.36500
C1462       C  0.62095280  0.07247460  0.58013461     0.36400
N1463       N  0.61001258  0.18902552  0.40150757    -0.43800
N1464       N  0.62321781  0.05163862  0.60882578    -0.43800
C1465       C  0.65884478  0.37228206  0.49854440    -0.00300
C1466       C  0.63966461  0.38044533  0.45968774    -0.12100
C1467       C  0.61343852  0.40449457  0.46250465     0.02000
C1468       C  0.60684501  0.42068805  0.50459112    -0.00300
C1469       C  0.62670470  0.41326789  0.54312883    -0.12100
C1470       C  0.65254017  0.38874299  0.54051636     0.01900
H1471       H  0.64474538  0.36746905  0.42755488     0.14800
H1472       H  0.62114312  0.42571504  0.57548219     0.14800
C1473       C  0.67050604  0.37895599  0.58178378     0.36500
C1474       C  0.59320054  0.41173817  0.42235274     0.36400
N1475       N  0.68458626  0.37067268  0.61487942    -0.43800
N1476       N  0.57693095  0.41761894  0.39024376    -0.43800
C1477       C  0.88156936  0.35487326  0.50890641    -0.00300
C1478       C  0.88091853  0.37746317  0.54620394    -0.12100
C1479       C  0.90682006  0.40158980  0.55202033     0.02000
C1480       C  0.93350654  0.40323235  0.51981465    -0.00300
C1481       C  0.93451501  0.38014709  0.48309594    -0.12100
C1482       C  0.90871568  0.35588846  0.47743038     0.01900
H1483       H  0.86005237  0.37634966  0.57056412     0.14800
H1484       H  0.95474294  0.38212583  0.45787744     0.14800
C1485       C  0.90949971  0.33390902  0.43763694     0.36500
C1486       C  0.90507581  0.42498496  0.59036314     0.36400
N1487       N  0.91006541  0.31640072  0.40565832    -0.43800
N1488       N  0.90353367  0.44373347  0.62104505    -0.43800
C1489       C  0.57863715  0.24931979  0.29747148    -0.00300
C1490       C  0.58001700  0.26807132  0.33842837    -0.12100
C1491       C  0.61030292  0.27279318  0.36250629     0.02000
C1492       C  0.64153309  0.25905632  0.34592912    -0.00300
C1493       C  0.64116271  0.24367381  0.30240545    -0.12100
C1494       C  0.61046737  0.23962828  0.27768739     0.01900
H1495       H  0.55727063  0.27994411  0.35199954     0.14800
H1496       H  0.66474301  0.23417133  0.28793866     0.14800
C1497       C  0.61291612  0.22652512  0.23161868     0.36500
C1498       C  0.60772187  0.29183331  0.40478987     0.36400
N1499       N  0.61512344  0.21614492  0.19463298    -0.43800
N1500       N  0.60473414  0.30663141  0.43886587    -0.43800
C1501       C  0.88215250  0.24434975  0.34874011    -0.00300
C1502       C  0.90832328  0.22183508  0.36310914    -0.12100
C1503       C  0.94004191  0.22130960  0.34121752     0.02000
C1504       C  0.94686670  0.24421911  0.30423735    -0.00300
C1505       C  0.92022620  0.26554714  0.28810205    -0.12100
C1506       C  0.88811853  0.26580883  0.30993201     0.01900
H1507       H  0.90405925  0.20456740  0.39219047     0.14800
H1508       H  0.92481887  0.28287833  0.25921163     0.14800
C1509       C  0.86260910  0.28975239  0.29356639     0.36500
C1510       C  0.96462112  0.19590516  0.35641648     0.36400
N1511       N  0.84224367  0.30904409  0.28037628    -0.43800
N1512       N  0.98420948  0.17539927  0.36849943    -0.43800
C1513       C  0.76541594  0.37826209  0.35073069    -0.00300
C1514       C  0.76699564  0.41128023  0.37167638    -0.12100
C1515       C  0.76036630  0.44233678  0.34741571     0.02000
C1516       C  0.75276727  0.44154142  0.30032039    -0.00300
C1517       C  0.75378208  0.40905321  0.27833892    -0.12100
C1518       C  0.75987799  0.37777833  0.30275164     0.01900
H1519       H  0.77171352  0.41306118  0.40815681     0.14800
H1520       H  0.74849023  0.40796448  0.24191817     0.14800
C1521       C  0.75897903  0.34573850  0.27761630     0.36500
C1522       C  0.75831209  0.47402393  0.37315435     0.36400
N1523       N  0.75817105  0.32013214  0.25723259    -0.43800
N1524       N  0.75633616  0.49865128  0.39537247    -0.43800
C1525       C  0.74577316  0.07144499  0.29064986    -0.00300
C1526       C  0.76645143  0.07001887  0.32957866    -0.12100
C1527       C  0.77267042  0.09955565  0.35600296     0.02000
C1528       C  0.75821088  0.13211161  0.34379179    -0.00300
C1529       C  0.74011150  0.13446598  0.30267317    -0.12100
C1530       C  0.73401874  0.10486767  0.27597037     0.01900
H1531       H  0.77752384  0.04558408  0.34012427     0.14800
H1532       H  0.72958025  0.15931302  0.29211162     0.14800
C1533       C  0.71624331  0.11051183  0.23336930     0.36500
C1534       C  0.79427957  0.09542194  0.39556088     0.36400
N1535       N  0.70167929  0.11597459  0.19967489    -0.43800
N1536       N  0.81161390  0.09167013  0.42715559    -0.43800
O1537       O  0.76031850  0.69380197  0.36042647    -0.80200
O1538       O  0.75502488  0.68647769  0.62539600    -0.81800
O1539       O  0.80954963  0.64888764  0.49713575    -0.78800
O1540       O  0.69941813  0.65823775  0.49669680    -0.77200
O1541       O  0.66209113  0.70350280  0.49312458    -0.79000
O1542       O  0.85291935  0.68814251  0.49238093    -0.79900
O1543       O  0.75175197  0.64898102  0.56523830    -0.81200
O1544       O  0.75694262  0.65361460  0.41883066    -0.81500
Eu1545     Eu  0.75662378  0.68166195  0.49311693     2.39200
O1546       O  0.72465889  0.71771781  0.54048575    -0.89000
O1547       O  0.79247424  0.71491298  0.44549825    -0.92600
C1548       C  0.75885873  0.66200504  0.37607791     1.02000
C1549       C  0.75215934  0.65532317  0.60855748     1.01900
C1550       C  0.84116102  0.65714402  0.49535250     1.01800
C1551       C  0.66933501  0.67114116  0.49644360     0.99700
H1552       H  0.80506404  0.69616819  0.56111082     0.29400
O1553       O  0.79191172  0.71225596  0.54295651    -1.01400
H1554       H  0.71087088  0.70570322  0.42527792     0.29500
O1555       O  0.72626016  0.71911825  0.44370256    -1.04000
O1556       O  0.76207091  0.80697588  0.62910419    -0.81200
O1557       O  0.76463203  0.81483718  0.36392712    -0.80700
O1558       O  0.85610314  0.74123100  0.56928774    -0.79200
O1559       O  0.66518114  0.75598095  0.56354868    -0.82500
O1560       O  0.66603102  0.75745187  0.41925808    -0.80400
O1561       O  0.85798806  0.74504132  0.42206381    -0.79000
O1562       O  0.82346302  0.84353829  0.50299623    -0.80500
O1563       O  0.71477213  0.85249501  0.49874346    -0.82500
O1564       O  0.86091031  0.79835104  0.50017170    -0.79200
O1565       O  0.67136942  0.81365181  0.49110459    -0.81900
O1566       O  0.81756690  0.74485617  0.62816156    -0.77600
O1567       O  0.82115591  0.75017007  0.36172701    -0.77600
O1568       O  0.70341862  0.75636343  0.35946071    -0.77300
O1569       O  0.69951368  0.74856973  0.62547939    -0.80800
O1570       O  0.76789696  0.84715055  0.57136333    -0.80200
O1571       O  0.76852043  0.85188532  0.42436865    -0.78500
Eu1572     Eu  0.75937724  0.74780598  0.59265622     2.39800
Eu1573     Eu  0.76224242  0.75329213  0.39575147     2.39600
Eu1574     Eu  0.82786190  0.74544480  0.49515436     2.38400
Eu1575     Eu  0.69563120  0.75596400  0.49174131     2.39900
Eu1576     Eu  0.76688410  0.81922968  0.49668591     2.39800
O1577       O  0.73128604  0.78978428  0.44553841    -0.92900
O1578       O  0.79645316  0.78069194  0.54454304    -0.91800
C1579       C  0.76528459  0.83882699  0.61413470     1.02200
C1580       C  0.76668188  0.84596365  0.38100261     1.00900
C1581       C  0.84835481  0.74219056  0.61219887     1.00300
C1582       C  0.66962241  0.75165474  0.60670522     1.02300
C1583       C  0.67264147  0.75777800  0.37616300     1.01300
C1584       C  0.85150456  0.74684687  0.37884673     1.00100
C1585       C  0.85354992  0.83069699  0.50347388     1.00200
C1586       C  0.68329574  0.84443074  0.49537027     1.02800
H1587       H  0.81409137  0.79823190  0.42960305     0.30200
O1588       O  0.79826923  0.78399241  0.44688223    -1.05100
H1589       H  0.71572755  0.80174255  0.56130422     0.32200
O1590       O  0.72970446  0.78649476  0.54308800    -1.07700
N1591       N  0.96117677  0.99521651  0.51857924    -0.36700
N1592       N  0.50721515  0.55264352  0.51600409    -0.57300
N1593       N  0.56311824  0.00551037  0.51448042    -0.36700
N1594       N  0.51714262  0.94787330  0.51673531    -0.57300
C1595       C  0.94068834  0.52096223  0.50383056     0.26900
C1596       C  0.94578023  0.96521458  0.50781389     0.26900
C1597       C  0.57799862  0.53551372  0.50175744     0.26900
C1598       C  0.58332071  0.97975485  0.49959379     0.26900
C1599       C  0.97807779  0.56987565  0.52287176     0.35500
C1600       C  0.53226282  0.57537020  0.52409855     0.35500
C1601       C  0.99233518  0.92515545  0.52729940     0.35500
C1602       C  0.54655914  0.93068098  0.52218439     0.35500
C1603       C  0.91195703  0.50728794  0.48350862    -0.22000
C1604       C  0.91509664  0.97193604  0.48623967    -0.22000
C1605       C  0.60805787  0.52888658  0.47855763    -0.22000
C1606       C  0.61142139  0.99346557  0.47708900    -0.22000
C1607       C  0.98447266  0.60380344  0.53571319    -0.23100
C1608       C  0.51912619  0.60725349  0.53680817    -0.23000
C1609       C  0.00593413  0.89324056  0.53970257    -0.23100
C1610       C  0.54055699  0.89670112  0.53615156    -0.23000
C1611       C  0.94628858  0.55634180  0.51160913    -0.18400
C1612       C  0.95784496  0.93208716  0.51995602    -0.18400
C1613       C  0.57815271  0.94446969  0.50938925    -0.18400
C1614       C  0.56628488  0.56856321  0.51390604    -0.18400
H1615       H  0.89070123  0.52138749  0.46902505     0.14500
H1616       H  0.89682225  0.95323324  0.47398692     0.14500
H1617       H  0.62584767  0.54765564  0.46457872     0.14500
H1618       H  0.63240621  0.97943641  0.46200709     0.14500
H1619       H  0.96613974  0.62416388  0.54198200     0.12800
H1620       H  0.53297581  0.63084582  0.54398050     0.12800
H1621       H  0.99232217  0.86967904  0.54853194     0.12800
H1622       H  0.55907665  0.87635610  0.54186870     0.12800
H1623       H  0.98223687  0.99772415  0.53978216     0.26100
H1624       H  0.54289402  0.00293351  0.53734245     0.26100
O1625       O  0.98908704  0.93845515  0.86218103    -0.80200
O1626       O  0.98675905  0.93319024  0.12618614    -0.81800
O1627       O  0.54750429  0.90446100  0.99961338    -0.78800
O1628       O  0.93822480  0.89621945  0.99710393    -0.77200
O1629       O  0.89471237  0.93541941  0.99513051    -0.79000
O1630       O  0.58507890  0.94954602  0.00050442    -0.79900
O1631       O  0.99105580  0.89708734  0.06501486    -0.81200
O1632       O  0.99304720  0.89931986  0.92120822    -0.81500
Eu1633     Eu  0.99077943  0.92923657  0.99406787     2.39200
O1634       O  0.95437883  0.95977358  0.04309395    -0.89000
O1635       O  0.52297948  0.96595641  0.94671153    -0.92600
C1636       C  0.99135281  0.90672088  0.87816355     1.02000
C1637       C  0.98899338  0.90224812  0.10817368     1.01900
C1638       C  0.57765006  0.91712236  0.00213497     1.01800
C1639       C  0.90664793  0.90447130  0.99730878     0.99700
H1640       H  0.53632480  0.95087141  0.06256260     0.29400
O1641       O  0.52115879  0.96483169  0.04410264    -1.01400
H1642       H  0.94112459  0.94555686  0.92753456     0.29500
O1643       O  0.95462902  0.96103087  0.94584440    -1.04000
O1644       O  0.98186058  0.55548204  0.12939314    -0.81200
O1645       O  0.98713079  0.55900353  0.86417030    -0.80700
O1646       O  0.58199770  0.00501610  0.06898291    -0.79200
O1647       O  0.88818627  0.98992024  0.06681032    -0.82500
O1648       O  0.89053403  0.49303667  0.92141299    -0.80400
O1649       O  0.58388003  0.50413791  0.92492225    -0.79000
O1650       O  0.53434976  0.59966552  0.00264636    -0.80500
O1651       O  0.92413046  0.59045099  0.00066489    -0.82500
O1652       O  0.57724010  0.55996495  0.99887297    -0.79200
O1653       O  0.88630594  0.54556882  0.99753106    -0.81900
O1654       O  0.54429596  0.99817731  0.12833256    -0.77600
O1655       O  0.54654124  0.49817345  0.86537653    -0.77600
O1656       O  0.92852325  0.49787458  0.86205914    -0.77300
O1657       O  0.92518661  0.99354446  0.12704549    -0.80800
O1658       O  0.97893464  0.59526890  0.07076268    -0.80200
O1659       O  0.98198775  0.59796035  0.92302592    -0.78500
Eu1660     Eu  0.98496535  0.99546747  0.09435831     2.39800
Eu1661     Eu  0.98697335  0.49845128  0.89760638     2.39600
Eu1662     Eu  0.55229875  0.00263188  0.99663368     2.38400
Eu1663     Eu  0.91942198  0.99287095  0.99479202     2.39900
Eu1664     Eu  0.98140551  0.56662342  0.99667117     2.39800
O1665       O  0.95069630  0.53065734  0.94697245    -0.92900
O1666       O  0.51647382  0.53356366  0.04532218    -0.91800
C1667       C  0.97960393  0.58731603  0.11371739     1.02200
C1668       C  0.98525446  0.59035771  0.88027145     1.00900
C1669       C  0.57495092  0.00218976  0.11189013     1.00300
C1670       C  0.89470073  0.99123017  0.10994229     1.02300
C1671       C  0.89782377  0.49516706  0.87848878     1.01300
C1672       C  0.57703376  0.50104857  0.88211099     1.00100
C1673       C  0.56595002  0.59108522  0.00219615     1.00200
C1674       C  0.89389543  0.57779992  0.00097076     1.02800
H1675       H  0.53173240  0.55106955  0.93035873     0.30200
O1676       O  0.51759982  0.53529821  0.94791420    -1.05100
H1677       H  0.93460384  0.54197261  0.06256177     0.32200
O1678       O  0.95015878  0.52865065  0.04411669    -1.07700
N1679       N  0.78830370  0.74379894  0.02925623    -0.36700
N1680       N  0.73306935  0.69604008  0.02587885    -0.57300
N1681       N  0.68591692  0.75273274  0.02686161    -0.36700
N1682       N  0.74081973  0.80065492  0.03013787    -0.57300
C1683       C  0.80429038  0.71444844  0.01680781     0.26900
C1684       C  0.80834507  0.77044261  0.01622286     0.26900
C1685       C  0.66646573  0.72679116  0.01082674     0.26900
C1686       C  0.67057839  0.78274651  0.01502037     0.26900
C1687       C  0.75824946  0.67377754  0.03599988     0.35500
C1688       C  0.70402028  0.67866321  0.03339872     0.35500
C1689       C  0.76973105  0.81776961  0.03873003     0.35500
C1690       C  0.71536031  0.82247522  0.04038201     0.35500
C1691       C  0.83518685  0.72237964  0.99632733    -0.22000
C1692       C  0.83774405  0.75795191  0.99588068    -0.22000
C1693       C  0.63840349  0.74035561  0.98836520    -0.22000
C1694       C  0.64100853  0.77589421  0.99099888    -0.22000
C1695       C  0.74532986  0.64208653  0.05060108    -0.23100
C1696       C  0.71064024  0.64524202  0.04909769    -0.23000
C1697       C  0.76280639  0.85068276  0.05514883    -0.23100
C1698       C  0.72802245  0.85359155  0.05656669    -0.23000
C1699       C  0.79231109  0.68080275  0.02628413    -0.18400
C1700       C  0.80163723  0.80546643  0.02532896    -0.18400
C1701       C  0.68152284  0.81580342  0.02880730    -0.18400
C1702       C  0.67230741  0.69137637  0.01966482    -0.18400
H1703       H  0.85398600  0.70442889  0.98341877     0.14500
H1704       H  0.85900597  0.77286160  0.98272142     0.14500
H1705       H  0.61792954  0.72612869  0.97253280     0.14500
H1706       H  0.62294666  0.79451840  0.97748642     0.14500
H1707       H  0.75940614  0.61890069  0.05974339     0.12800
H1708       H  0.69243121  0.62493121  0.05673104     0.12800
H1709       H  0.78087093  0.87075885  0.06366982     0.12800
H1710       H  0.71377407  0.87640640  0.06629173     0.12800
H1711       H  0.76688663  0.74535514  0.05012915     0.26100
H1712       H  0.70599859  0.75006789  0.04977598     0.26100
C1713       C  0.54382586  0.74565147  0.27302924     0.86400
C1714       C  0.53843239  0.71237532  0.24525382    -0.53900
C1715       C  0.00792701  0.71043073  0.22290963     0.09300
C1716       C  0.98577872  0.74365201  0.22905765     0.20300
C1717       C  0.53866080  0.77554037  0.23921283    -0.54600
C1718       C  0.00832158  0.77566596  0.21724963     0.09400
C1719       C  0.01160708  0.74650044  0.30432095    -0.56700
C1720       C  0.98118970  0.74543450  0.28120241     0.10000
H1721       H  0.55673457  0.69139747  0.24492270     0.14500
H1722       H  0.96130655  0.74313184  0.21031919     0.00200
H1723       H  0.55686733  0.79658893  0.23532462     0.14800
H1724       H  0.01249043  0.74692427  0.34143238     0.14600
C1725       C  0.70394637  0.00084552  0.21576841     0.86400
C1726       C  0.71000694  0.97093681  0.25027156    -0.53900
C1727       C  0.73981631  0.97285037  0.27406209     0.09300
C1728       C  0.76098136  0.00590425  0.26174530     0.20300
C1729       C  0.70719344  0.53389581  0.24414196    -0.54600
C1730       C  0.73722103  0.53800611  0.26665899     0.09400
C1731       C  0.73653834  0.99993276  0.18585044    -0.54100
C1732       C  0.76645707  0.00300326  0.20969380     0.10000
H1733       H  0.69412550  0.94803719  0.25285854     0.14500
H1734       H  0.78517807  0.00747662  0.28092936     0.00200
H1735       H  0.68669795  0.55264457  0.24570706     0.14800
H1736       H  0.73601610  0.99618762  0.14904287     0.14600
C1737       C  0.53962365  0.74879952  0.71152443     0.86400
C1738       C  0.53490819  0.78092463  0.74121156    -0.53900
C1739       C  0.00596800  0.78131642  0.76698664     0.09300
C1740       C  0.98366547  0.74814108  0.76106516     0.20300
C1741       C  0.53639691  0.71761404  0.74428888    -0.54600
C1742       C  0.00717954  0.71627255  0.77000623     0.09400
C1743       C  0.00615588  0.74767027  0.68332839    -0.54100
C1744       C  0.97697568  0.74663323  0.70908479     0.10000
H1745       H  0.55282461  0.80237447  0.74093681     0.14500
H1746       H  0.96018034  0.74830246  0.78212917     0.00200
H1747       H  0.55520982  0.69700229  0.74468208     0.14800
H1748       H  0.00454349  0.74830382  0.64637866     0.14600
C1749       C  0.70540773  0.99510292  0.77726753     0.86400
C1750       C  0.70900679  0.52657879  0.74512055    -0.53900
C1751       C  0.73877056  0.52865290  0.72141413     0.09300
C1752       C  0.76283215  0.99730110  0.73094253     0.20300
C1753       C  0.71154524  0.96356931  0.74608767    -0.54600
C1754       C  0.74163959  0.96375270  0.72258093     0.09400
C1755       C  0.73772973  0.99597382  0.80740097    -0.54100
C1756       C  0.76784122  0.99702840  0.78330850     0.10000
H1757       H  0.68948516  0.54640082  0.74205643     0.14500
H1758       H  0.78718053  0.99844135  0.71181250     0.00200
H1759       H  0.69470324  0.94160606  0.74345879     0.14800
H1760       H  0.73677710  0.99533640  0.84459299     0.14600
C1761       C  0.60550449  0.00350347  0.14250300    -0.00300
C1762       C  0.63290246  0.52511615  0.12909574    -0.12100
C1763       C  0.66436177  0.52423137  0.15165141     0.02000
C1764       C  0.66990614  0.00077653  0.18885002    -0.00300
C1765       C  0.64191751  0.98015871  0.20329280    -0.12100
C1766       C  0.61040028  0.98103359  0.18034073     0.01900
H1767       H  0.62978861  0.54264742  0.10003693     0.14800
H1768       H  0.64390354  0.96336632  0.23298851     0.14800
C1769       C  0.58415175  0.95720648  0.19490717     0.36500
C1770       C  0.69047520  0.54747964  0.13477145     0.36400
N1771       N  0.56323777  0.93789438  0.20649053    -0.43800
N1772       N  0.71145696  0.56576672  0.12066202    -0.43800
C1773       C  0.86400453  0.99116150  0.14048860    -0.00300
C1774       C  0.85996217  0.51714917  0.17340508    -0.12100
C1775       C  0.82861703  0.52184680  0.19630082     0.02000
C1776       C  0.80073953  0.99950871  0.18750098    -0.00300
C1777       C  0.80542712  0.97283461  0.15588917    -0.12100
C1778       C  0.83598300  0.96903428  0.13182256     0.01900
H1779       H  0.88053593  0.53527632  0.17922520     0.14800
H1780       H  0.78461666  0.95521132  0.14893445     0.14800
C1781       C  0.83661761  0.94323460  0.09646103     0.36500
C1782       C  0.82501685  0.55160224  0.22553673     0.36400
N1783       N  0.83549342  0.92296483  0.06759089    -0.43800
N1784       N  0.82267676  0.57586133  0.24840218    -0.43800
C1785       C  0.98964539  0.86938423  0.13726990    -0.00300
C1786       C  0.99346524  0.87112656  0.18507910    -0.12100
C1787       C  0.99707632  0.84072635  0.21205240     0.02000
C1788       C  0.99727556  0.80751017  0.19150489    -0.00300
C1789       C  0.49118067  0.80534531  0.14467658    -0.12100
C1790       C  0.48726816  0.83539130  0.11752379     0.01900
H1791       H  0.99437781  0.89624528  0.20144169     0.14800
H1792       H  0.49092306  0.77997533  0.12880917     0.14800
C1793       C  0.48118656  0.82956180  0.06934956     0.36500
C1794       C  0.00043475  0.84409989  0.26106522     0.36400
N1795       N  0.47638956  0.82438051  0.03089716    -0.43800
N1796       N  0.00296561  0.84642628  0.30041809    -0.43800
C1797       C  0.97976833  0.61780727  0.14603340    -0.00300
C1798       C  0.49482104  0.61432826  0.18948304    -0.12100
C1799       C  0.50290412  0.64363899  0.21600136     0.02000
C1800       C  0.99603958  0.67783523  0.19928704    -0.00300
C1801       C  0.97798480  0.68106431  0.15821397    -0.12100
C1802       C  0.96982817  0.65191881  0.13172885     0.01900
H1803       H  0.50209184  0.58873767  0.20181138     0.14800
H1804       H  0.97170583  0.70677038  0.14528144     0.14800
C1805       C  0.95291859  0.65870681  0.08869839     0.36500
C1806       C  0.51833166  0.63743975  0.26015399     0.36400
N1807       N  0.93986761  0.66488917  0.05407890    -0.43800
N1808       N  0.53096286  0.63219935  0.29531868    -0.43800
C1809       C  0.65702985  0.84460668  0.02668115    -0.00300
C1810       C  0.66173483  0.87084632  0.99364262    -0.12100
C1811       C  0.63636521  0.89535935  0.98556677     0.02000
C1812       C  0.60549056  0.89283637  0.00995150    -0.00300
C1813       C  0.60141456  0.86743524  0.04431364    -0.12100
C1814       C  0.62728893  0.84378531  0.05350534     0.01900
H1815       H  0.68478393  0.87143586  0.97319686     0.14800
H1816       H  0.57815809  0.86637006  0.06433404     0.14800
C1817       C  0.62303720  0.81886190  0.09045378     0.36500
C1818       C  0.64206007  0.92176040  0.95085313     0.36400
N1819       N  0.62006779  0.79894284  0.12017374    -0.43800
N1820       N  0.64680072  0.94299714  0.92322248    -0.43800
C1821       C  0.88208370  0.87678203  0.00295407    -0.00300
C1822       C  0.85916734  0.87049075  0.96744982    -0.12100
C1823       C  0.83242349  0.84734250  0.97427266     0.02000
C1824       C  0.82880453  0.83056004  0.01710829    -0.00300
C1825       C  0.85182359  0.83658605  0.05233640    -0.12100
C1826       C  0.87835737  0.85984615  0.04569741     0.01900
H1827       H  0.86179815  0.88418416  0.93493779     0.14800
H1828       H  0.84842361  0.82378932  0.08534498     0.14800
C1829       C  0.89863316  0.86895994  0.08482747     0.36500
C1830       C  0.80888253  0.84130170  0.93733399     0.36400
N1831       N  0.91372593  0.87663580  0.11708487    -0.43800
N1832       N  0.78996198  0.83640361  0.90783199    -0.43800
C1833       C  0.81615364  0.65175782  0.02269415    -0.00300
C1834       C  0.81401762  0.62988333  0.98473894    -0.12100
C1835       C  0.83851464  0.60435000  0.97781701     0.02000
C1836       C  0.86607870  0.60190355  0.00827203    -0.00300
C1837       C  0.86706461  0.62249388  0.04753604    -0.12100
C1838       C  0.84196317  0.64713531  0.05527710     0.01900
H1839       H  0.79353956  0.63319899  0.96029998     0.14800
H1840       H  0.88730622  0.61904041  0.07228668     0.14800
C1841       C  0.84272141  0.66718504  0.09682798     0.36500
C1842       C  0.83511310  0.58142593  0.93922958     0.36400
N1843       N  0.84280417  0.68318422  0.13017936    -0.43800
N1844       N  0.83206618  0.56274847  0.90870176    -0.43800
C1845       C  0.64440370  0.66658685  0.01321293    -0.00300
C1846       C  0.61687531  0.66765701  0.04351968    -0.12100
C1847       C  0.59071522  0.64347010  0.04030156     0.02000
C1848       C  0.59162043  0.61840294  0.00549238    -0.00300
C1849       C  0.61943162  0.61723560  0.97544354    -0.12100
C1850       C  0.64578248  0.64111955  0.97896193     0.01900
H1851       H  0.61654424  0.68663987  0.07075658     0.14800
H1852       H  0.62083805  0.59722426  0.94962906     0.14800
C1853       C  0.67422521  0.63850592  0.94781610     0.36500
C1854       C  0.56549609  0.64271137  0.07604102     0.36400
N1855       N  0.69715254  0.63612926  0.92315515    -0.43800
N1856       N  0.54614069  0.64217728  0.10583924    -0.43800
C1857       C  0.80225453  0.99509856  0.80533543    -0.00300
C1858       C  0.82805210  0.51876595  0.79216250    -0.12100
C1859       C  0.86029860  0.51831070  0.81333681     0.02000
C1860       C  0.86755246  0.49341209  0.84783044    -0.00300
C1861       C  0.84219212  0.96884804  0.85930650    -0.12100
C1862       C  0.81016568  0.96934698  0.83845982     0.01900
H1863       H  0.82249700  0.53847613  0.76645603     0.14800
H1864       H  0.84734951  0.94940047  0.88557216     0.14800
C1865       C  0.78621085  0.94247235  0.85103505     0.36500
C1866       C  0.88452365  0.54501599  0.80136196     0.36400
N1867       N  0.76707655  0.92086972  0.86106922    -0.43800
N1868       N  0.90385876  0.56653843  0.79177096    -0.43800
C1869       C  0.67129977  0.99612710  0.80448941    -0.00300
C1870       C  0.64583689  0.97028846  0.79980896    -0.12100
C1871       C  0.61445258  0.97222938  0.82294589     0.02000
C1872       C  0.60736273  0.50043622  0.85141958    -0.00300
C1873       C  0.63259983  0.52576291  0.85730510    -0.12100
C1874       C  0.66401037  0.52394340  0.83443744     0.01900
H1875       H  0.64961111  0.94795659  0.77859730     0.14800
H1876       H  0.62790853  0.54699755  0.88064576     0.14800
C1877       C  0.68823806  0.55130431  0.84267960     0.36500
C1878       C  0.59115057  0.94342194  0.81953050     0.36400
N1879       N  0.70773228  0.57316534  0.84921796    -0.43800
N1880       N  0.57280021  0.92005996  0.81708844    -0.43800
C1881       C  0.99029998  0.62063634  0.84885620    -0.00300
C1882       C  0.96260649  0.63717461  0.82774632    -0.12100
C1883       C  0.96683322  0.66841932  0.80242745     0.02000
C1884       C  0.99929637  0.68457861  0.79937342    -0.00300
C1885       C  0.52656446  0.66801101  0.82184374    -0.12100
C1886       C  0.52249333  0.63636611  0.84536523     0.01900
H1887       H  0.93758376  0.62566296  0.83106353     0.14800
H1888       H  0.55161044  0.67965806  0.82072426     0.14800
C1889       C  0.55210749  0.62008052  0.86508443     0.36500
C1890       C  0.93743876  0.68196379  0.77900166     0.36400
N1891       N  0.57600477  0.60683718  0.88014945    -0.43800
N1892       N  0.91309826  0.69174247  0.76089312    -0.43800
C1893       C  0.99180710  0.87538801  0.84699064    -0.00300
C1894       C  0.48890581  0.84186986  0.86742342    -0.12100
C1895       C  0.49138846  0.81118673  0.84189031     0.02000
C1896       C  0.99715813  0.81295434  0.79438348    -0.00300
C1897       C  0.99877052  0.84610939  0.77329261    -0.12100
C1898       C  0.99584493  0.87699512  0.79875845     0.01900
H1899       H  0.48520362  0.83924653  0.90412027     0.14800
H1900       H  0.00301411  0.84788960  0.73659328     0.14800
C1901       C  0.99774168  0.90969887  0.77433467     0.36500
C1902       C  0.48993287  0.77821726  0.86585955     0.36400
N1903       N  0.99917825  0.93586558  0.75454699    -0.43800
N1904       N  0.48876027  0.75186822  0.88524760    -0.43800
C1905       C  0.94243887  0.74283024  0.68810138    -0.00300
C1906       C  0.91591442  0.76521763  0.70101178    -0.12100
C1907       C  0.88408595  0.76426747  0.67891500     0.02000
C1908       C  0.87808475  0.74002078  0.64379889    -0.00300
C1909       C  0.90400831  0.71627885  0.63304192    -0.12100
C1910       C  0.93574770  0.71740983  0.65462697     0.01900
H1911       H  0.92060252  0.78464983  0.72686218     0.14800
H1912       H  0.89977798  0.69731914  0.60638881     0.14800
C1913       C  0.96090081  0.69188598  0.64194652     0.36500
C1914       C  0.85929892  0.79047620  0.68995400     0.36400
N1915       N  0.98111679  0.67153155  0.63177150    -0.43800
N1916       N  0.83966856  0.81179499  0.69864269    -0.43800
C1917       C  0.63709320  0.74960528  0.63438730    -0.00300
C1918       C  0.63680039  0.75370185  0.68224099    -0.12100
C1919       C  0.60601502  0.75300695  0.70757463     0.02000
C1920       C  0.57406523  0.74883374  0.68520767    -0.00300
C1921       C  0.57492919  0.74344836  0.63776860    -0.12100
C1922       C  0.60519695  0.74366518  0.61267066     0.01900
H1923       H  0.66060465  0.75766442  0.70000315     0.14800
H1924       H  0.55207834  0.73790923  0.61911008     0.14800
C1925       C  0.60169052  0.73670785  0.56427052     0.36500
C1926       C  0.60815663  0.75644679  0.75671637     0.36400
N1927       N  0.59817187  0.73136524  0.52562018    -0.43800
N1928       N  0.60996604  0.75918268  0.79610111    -0.43800
C1929       C  0.74911261  0.62359632  0.63950133    -0.00300
C1930       C  0.73220564  0.59401995  0.62248634    -0.12100
C1931       C  0.72987331  0.56283574  0.64789424     0.02000
C1932       C  0.74563097  0.55964976  0.69101079    -0.00300
C1933       C  0.76247446  0.58894434  0.70850985    -0.12100
C1934       C  0.76408439  0.62069501  0.68352686     0.01900
H1935       H  0.72006369  0.59534195  0.58921857     0.14800
H1936       H  0.77355178  0.58733400  0.74244528     0.14800
C1937       C  0.78159476  0.64964521  0.70367492     0.36500
C1938       C  0.70995521  0.53464833  0.62983147     0.36400
N1939       N  0.79553912  0.67294503  0.71983166    -0.43800
N1940       N  0.69363714  0.01202241  0.61597945    -0.43800
C1941       C  0.76466836  0.86919539  0.64655847    -0.00300
C1942       C  0.77479702  0.90221031  0.62957096    -0.12100
C1943       C  0.76889797  0.93297183  0.65399276     0.02000
C1944       C  0.75316392  0.93162073  0.69740513    -0.00300
C1945       C  0.74570693  0.89842106  0.71620418    -0.12100
C1946       C  0.75091319  0.86761976  0.69138651     0.01900
H1947       H  0.78610675  0.90441755  0.59573765     0.14800
H1948       H  0.73464242  0.89647688  0.75020884     0.14800
C1949       C  0.73998451  0.83525329  0.71205874     0.36500
C1950       C  0.77707825  0.96559522  0.63190303     0.36400
N1951       N  0.73105883  0.80944229  0.72883965    -0.43800
N1952       N  0.78376433  0.99161116  0.61383600    -0.43800
C1953       C  0.86605627  0.62936273  0.49830342    -0.00300
C1954       C  0.88900988  0.62523314  0.46198706    -0.12100
C1955       C  0.91497583  0.60078056  0.46526470     0.02000
C1956       C  0.91801026  0.58058509  0.50549559    -0.00300
C1957       C  0.89499305  0.58447857  0.54158633    -0.12100
C1958       C  0.86905480  0.60889726  0.53838548     0.01900
H1959       H  0.88680204  0.64134562  0.43141197     0.14800
H1960       H  0.89797536  0.56910944  0.57269750     0.14800
C1961       C  0.84740928  0.61403128  0.57774372     0.36500
C1962       C  0.93854381  0.59700805  0.42759693     0.36400
N1963       N  0.83048686  0.61805247  0.60972017    -0.43800
N1964       N  0.95761672  0.59371651  0.39770432    -0.43800
C1965       C  0.64126775  0.64703103  0.50208233    -0.00300
C1966       C  0.64291277  0.62303251  0.53840903    -0.12100
C1967       C  0.61779167  0.59802846  0.54389354     0.02000
C1968       C  0.59060200  0.59728607  0.51280937    -0.00300
C1969       C  0.58822033  0.62204764  0.47750184    -0.12100
C1970       C  0.61345294  0.64702916  0.47187081     0.01900
H1971       H  0.66414373  0.62351632  0.56199988     0.14800
H1972       H  0.56737843  0.62087399  0.45333581     0.14800
C1973       C  0.61152339  0.67052391  0.43306685     0.36500
C1974       C  0.62092434  0.57250837  0.58030589     0.36400
N1975       N  0.60996652  0.68907541  0.40169579    -0.43800
N1976       N  0.62320243  0.55167950  0.60900488    -0.43800
C1977       C  0.65881275  0.87224903  0.49820176    -0.00300
C1978       C  0.63966120  0.88046762  0.45933262    -0.12100
C1979       C  0.61343508  0.90452795  0.46216355     0.02000
C1980       C  0.60681835  0.92068637  0.50427070    -0.00300
C1981       C  0.62664316  0.91319991  0.54282133    -0.12100
C1982       C  0.65246322  0.88865488  0.54019873     0.01900
H1983       H  0.64475950  0.86752417  0.42718197     0.14800
H1984       H  0.62105991  0.92560502  0.57519624     0.14800
C1985       C  0.67036553  0.87877669  0.58147968     0.36500
C1986       C  0.59321269  0.91181586  0.42200935     0.36400
N1987       N  0.68439959  0.87040203  0.61457226    -0.43800
N1988       N  0.57694823  0.91773724  0.38990762    -0.43800
C1989       C  0.88160715  0.85482095  0.50886123    -0.00300
C1990       C  0.88098364  0.87734545  0.54622638    -0.12100
C1991       C  0.90684177  0.90152627  0.55201167     0.02000
C1992       C  0.93347366  0.90326792  0.51972776    -0.00300
C1993       C  0.93445322  0.88024266  0.48293662    -0.12100
C1994       C  0.90868101  0.85594922  0.47728372     0.01900
H1995       H  0.86015902  0.87615455  0.57064643     0.14800
H1996       H  0.95463103  0.88229828  0.45765536     0.14800
C1997       C  0.90938794  0.83406367  0.43739523     0.36500
C1998       C  0.90508910  0.92488402  0.59039240     0.36400
N1999       N  0.90986133  0.81662575  0.40534635    -0.43800
N2000       N  0.90352064  0.94360283  0.62110364    -0.43800
C2001       C  0.57866220  0.74929094  0.29741170    -0.00300
C2002       C  0.58003132  0.76804558  0.33836784    -0.12100
C2003       C  0.61031637  0.77278426  0.36244972     0.02000
C2004       C  0.64154933  0.75903589  0.34589410    -0.00300
C2005       C  0.64118778  0.74364960  0.30237607    -0.12100
C2006       C  0.61050037  0.73960608  0.27764284     0.01900
H2007       H  0.55727542  0.77991009  0.35192651     0.14800
H2008       H  0.66477215  0.73414839  0.28791958     0.14800
C2009       C  0.61297285  0.72652217  0.23156845     0.36500
C2010       C  0.60773364  0.79187833  0.40469007     0.36400
N2011       N  0.61520808  0.71615909  0.19457740    -0.43800
N2012       N  0.60472701  0.80673497  0.43871819    -0.43800
C2013       C  0.88219434  0.74418170  0.34856492    -0.00300
C2014       C  0.90837531  0.72168498  0.36294466    -0.12100
C2015       C  0.94010287  0.72117481  0.34107015     0.02000
C2016       C  0.94692085  0.74405822  0.30405368    -0.00300
C2017       C  0.92026311  0.76536163  0.28789765    -0.12100
C2018       C  0.88815179  0.76561864  0.30973300     0.01900
H2019       H  0.90412193  0.70443806  0.39204954     0.14800
H2020       H  0.92484530  0.78268369  0.25899496     0.14800
C2021       C  0.86261263  0.78952128  0.29334555     0.36500
C2022       C  0.96472257  0.69586091  0.35641001     0.36400
N2023       N  0.84219719  0.80876167  0.28016567    -0.43800
N2024       N  0.98434548  0.67544541  0.36865651    -0.43800
C2025       C  0.76542394  0.87816361  0.35046378    -0.00300
C2026       C  0.76707105  0.91118014  0.37140824    -0.12100
C2027       C  0.76038215  0.94224323  0.34719303     0.02000
C2028       C  0.75269643  0.94146778  0.30012792    -0.00300
C2029       C  0.75363863  0.90897969  0.27813103    -0.12100
C2030       C  0.75975671  0.87769143  0.30250951     0.01900
H2031       H  0.77187033  0.91295461  0.40786908     0.14800
H2032       H  0.74826179  0.90790063  0.24173247     0.14800
C2033       C  0.75872545  0.84565625  0.27737071     0.36500
C2034       C  0.75830859  0.97391441  0.37296134     0.36400
N2035       N  0.75780369  0.82006441  0.25696406    -0.43800
N2036       N  0.75629657  0.99853949  0.39517749    -0.43800
C2037       C  0.74605617  0.57142971  0.29065204    -0.00300
C2038       C  0.76664476  0.56995262  0.32966291    -0.12100
C2039       C  0.77284612  0.59947108  0.35612214     0.02000
C2040       C  0.75844901  0.63204368  0.34385259    -0.00300
C2041       C  0.74048023  0.63444410  0.30263926    -0.12100
C2042       C  0.73442215  0.60486897  0.27589976     0.01900
H2043       H  0.77766147  0.54549791  0.34023134     0.14800
H2044       H  0.73002553  0.65931185  0.29202209     0.14800
C2045       C  0.71683832  0.61055294  0.23316684     0.36500
C2046       C  0.79437265  0.59529875  0.39575710     0.36400
N2047       N  0.70244570  0.61607191  0.19935466    -0.43800
N2048       N  0.81164681  0.59149735  0.42740245    -0.43800
loop_ 
_geom_bond_atom_site_label_1 
_geom_bond_atom_site_label_2 
_geom_bond_distance 
_geom_bond_site_symmetry_2 
_ccdc_geom_bond_type 
O1           C12   1.304       .  A
O1          Eu37   2.524       .  S
O2           C13   1.306       .  A
O2          Eu36   2.544       .  S
O3           C14   1.286       .  A
O3           Eu9   2.440       .  S
O4           C15   1.285       .  A
O4           Eu9   2.428       .  S
O5           C15   1.281       .  A
O5          Eu39   2.414       .  S
O6           C14   1.282       .  A
O6          Eu38   2.419       .  S
O7           C13   1.290       .  A
O7           Eu9   2.448       .  S
O8           C12   1.287       .  A
O8           Eu9   2.432       .  S
Eu9          O19   2.357       .  S
Eu9          O11   2.348       .  S
Eu9          O10   2.335       .  S
Eu9          O17   2.341       .  S
O10         Eu39   2.338       .  S
O10         Eu36   2.362       .  S
O11         Eu37   2.382       .  S
O11         Eu38   2.340       .  S
C12         C504   1.497       .  S
C13         C393   1.516       .  S
C14         C417   1.453       .  S
C15         C429   1.451       .  S
H16          O17   0.963       .  S
O17         Eu38   2.352       .  S
O17         Eu36   2.377       .  S
H18          O19   0.965       .  S
O19         Eu37   2.376       .  S
O19         Eu39   2.337       .  S
O20          C43   1.304       .  A
O20         Eu36   2.527       .  S
O21          C44   1.306       .  A
O21         Eu37   2.538       .  S
O22          C45   1.289       .  A
O22         Eu38   2.439       .  S
O23          C46   1.281       .  A
O23         Eu39   2.411       .  S
O24          C47   1.283       .  A
O24         Eu39   2.419       .  S
O25          C48   1.288       .  A
O25         Eu38   2.437       .  S
O26          C49   1.284       .  A
O26         Eu40   2.426       .  S
O27          C50   1.282       .  A
O27         Eu40   2.419       .  S
O28          C49   1.283       .  A
O28         Eu38   2.424       .  S
O29          C50   1.282       .  A
O29         Eu39   2.418       .  S
O30          C45   1.302       .  A
O30         Eu36   2.520       .  S
O31          C48   1.303       .  A
O31         Eu37   2.524       .  S
O32          C47   1.306       .  A
O32         Eu37   2.553       .  S
O33          C46   1.305       .  A
O33         Eu36   2.543       .  S
O34          C43   1.289       .  A
O34         Eu40   2.440       .  S
O35          C44   1.290       .  A
O35         Eu40   2.445       .  S
Eu36         O54   2.375       .  S
Eu36         O42   2.379       .  S
Eu37         O41   2.367       .  S
Eu37         O52   2.385       .  S
Eu38         O52   2.347       .  S
Eu38         O42   2.341       .  S
Eu39         O41   2.332       .  S
Eu39         O54   2.341       .  S
Eu40         O41   2.352       .  S
Eu40         O52   2.347       .  S
Eu40         O54   2.349       .  S
Eu40         O42   2.340       .  S
C43         C405   1.512       .  S
C44         C489   1.520       .  S
C45         C372   1.494       .  S
C46         C381   1.514       .  S
C47         C468   1.513       .  S
C48         C477   1.499       .  S
C49         C453   1.454       .  S
C50         C441   1.444       .  S
H51          O52   0.967       .  S
H53          O54   0.967       .  S
N55          C60   1.345       .  A
N55         C571   1.348       .  A
N55          H87   1.041       .  S
N56          C64   1.342       .  A
N56        C1087   1.341   1_455  A
N57          C62   1.346       .  A
N57         C573   1.345       .  A
N57          H88   1.041       .  S
N58          C66   1.343       .  A
N58        C1089   1.344   1_455  A
C59         N567   1.348   1_545  A
C59          C67   1.386       .  A
C59          C75   1.401       .  A
C60          C76   1.404       .  A
C60          C68   1.388       .  A
C61         N569   1.345       .  A
C61          C69   1.387       .  A
C61          C78   1.402       .  A
C62          C77   1.400       .  A
C62          C70   1.387       .  A
C63        N1080   1.341       .  A
C63          C75   1.398       .  A
C63          C71   1.386       .  A
C64          C78   1.397       .  A
C64          C72   1.386       .  A
C65        N1082   1.344       .  A
C65          C73   1.386       .  A
C65          C76   1.401       .  A
C66          C74   1.387       .  A
C66          C77   1.401       .  A
C67         C580   1.373   1_545  A
C67          H79   1.082       .  S
C68         C579   1.373       .  A
C68          H80   1.082       .  S
C69         C582   1.373   1_545  A
C69          H81   1.083       .  S
C70         C581   1.373       .  A
C70          H82   1.082       .  S
C71        C1096   1.372       .  A
C71          H83   1.083       .  S
C72        C1095   1.372   1_455  A
C72          H84   1.082       .  S
C73        C1098   1.374       .  A
C73          H85   1.082       .  S
C74        C1097   1.374       .  A
C74          H86   1.082       .  S
C75         C420   1.463       .  S
C76         C456   1.467       .  S
C77         C444   1.462       .  S
C78         C432   1.463       .  S
O89         C100   1.306       .  A
O89        Eu637   2.547       .  S
O90         C101   1.310       .  A
O90        Eu124   2.565       .  S
O91         C102   1.286   1_556  A
O91       Eu1121   2.436   1_455  S
O92         C103   1.284       .  A
O92         Eu97   2.431       .  S
O93         C103   1.282       .  A
O93        Eu127   2.418       .  S
O94         C102   1.283       .  A
O94        Eu126   2.421   1_554  S
O95         C101   1.279       .  A
O95         Eu97   2.401   1_554  S
O96         C100   1.287       .  A
O96         Eu97   2.431       .  S
Eu97       O1115   2.436       .  S
Eu97        O107   2.341       .  S
Eu97         O98   2.347   1_556  S
Eu97       O1123   2.338       .  S
Eu97       O1129   2.345   1_556  S
O98        Eu127   2.341   1_554  S
O98        Eu124   2.373       .  S
O99        Eu126   2.347       .  S
O99       Eu1121   2.338   1_455  S
O99       Eu1661   2.370   1_455  S
C100        C357   1.519       .  S
C101        C249   1.517       .  S
C102        C276   1.459       .  S
C103        C285   1.449   1_556  S
H104        O105   0.965       .  S
O105       Eu126   2.343   1_554  S
O105      Eu1121   2.345   1_454  S
O105      Eu1148   2.366   1_455  S
H106        O107   0.965       .  S
O107       Eu127   2.344       .  S
O107       Eu637   2.368       .  S
O108        C131   1.307       .  A
O108       Eu636   2.542   1_545  S
O109        C132   1.302       .  A
O109       Eu125   2.518   1_545  S
O110        C133   1.285       .  A
O110       Eu126   2.419   1_554  S
O111        C134   1.287       .  A
O111       Eu127   2.433   1_554  S
O112        C135   1.286       .  A
O112       Eu639   2.426       .  S
O113        C136   1.286       .  A
O113       Eu638   2.427       .  S
O114        C137   1.288       .  A
O114      Eu1152   2.452   1_454  S
O115        C138   1.287       .  A
O115       Eu128   2.439   1_554  S
O116        C137   1.283   1_556  A
O116       Eu638   2.417       .  S
O117        C138   1.281   1_556  A
O117       Eu639   2.414   1_545  S
O118        C133   1.307       .  A
O118      Eu1148   2.545   1_455  S
O119        C136   1.303   1_565  A
O119      Eu1149   2.526   1_455  S
O120        C135   1.303       .  A
O120       Eu125   2.528       .  S
O121        C134   1.305       .  A
O121       Eu124   2.539       .  S
O122        C131   1.288       .  A
O122       Eu128   2.440   1_554  S
O123        C132   1.290       .  A
O123       Eu128   2.452       .  S
Eu124       O620   2.543       .  S
Eu124      O1142   2.545       .  S
Eu124      O1129   2.366       .  S
Eu124       O654   2.373       .  S
Eu124      O1666   2.380       .  S
Eu125       O601   2.547       .  S
Eu125      O1143   2.526       .  S
Eu125       O129   2.383   1_565  S
Eu125      O1635   2.369       .  S
Eu125       O619   2.367       .  S
Eu125      O1164   2.382   1_565  S
Eu126       O625   2.426       .  S
Eu126       O628   2.419       .  S
Eu126       O652   2.338       .  S
Eu126       O642   2.342   1_556  S
Eu127       O624   2.425       .  S
Eu127       O629   2.415       .  S
Eu127       O641   2.345       .  S
Eu127       O654   2.343   1_556  S
Eu128      O1138   2.452   1_556  S
Eu128       O129   2.354       .  S
Eu128       O142   2.348   1_556  S
Eu128      O1164   2.354       .  S
Eu128      O1154   2.349   1_556  S
O129       Eu639   2.345   1_545  S
O130      Eu1660   2.380   1_445  S
O130       Eu638   2.343   1_554  S
O130      Eu1152   2.349   1_454  S
C131        C261   1.513       .  S
C132        C345   1.488       .  S
C133        C225   1.503       .  S
C134        C237   1.500       .  S
C135        C324   1.495       .  S
C136        C336   1.492       .  S
C137        C312   1.465       .  S
C138        C300   1.452       .  S
H139        O140   0.966       .  S
O140      Eu1149   2.382   1_445  S
O140       Eu638   2.337       .  S
O140      Eu1152   2.354   1_455  S
H141        O142   0.965       .  S
O142       Eu636   2.372   1_545  S
O142       Eu639   2.343   1_544  S
N143        C148   1.346       .  A
N143        C147   1.347       .  A
N143        H175   1.041       .  S
N144        C151   1.342       .  A
N144        C152   1.342       .  A
N145        C150   1.346       .  A
N145        C149   1.348       .  A
N145        H176   1.042       .  S
N146        C153   1.342       .  A
N146        C154   1.344       .  A
C147        C155   1.387   1_554  A
C147        C163   1.404       .  A
C148        C164   1.403       .  A
C148        C156   1.388   1_554  A
C149        C157   1.386   1_554  A
C149        C166   1.405       .  A
C150        C165   1.407       .  A
C150        C158   1.388   1_554  A
C151        C163   1.396       .  A
C151        C159   1.385       .  A
C152        C166   1.400       .  A
C152        C160   1.387       .  A
C153        C161   1.386       .  A
C153        C164   1.399       .  A
C154        C162   1.386       .  A
C154        C165   1.401       .  A
C155        C156   1.374       .  A
C155        H167   1.082       .  S
C156        H168   1.083       .  S
C157        C158   1.375       .  A
C157        H169   1.082       .  S
C158        H170   1.082       .  S
C159        C160   1.373       .  A
C159        H171   1.082       .  S
C160        H172   1.082       .  S
C161        C162   1.375       .  A
C161        H173   1.082       .  S
C162        H174   1.082       .  S
C163        C297   1.464       .  S
C164        C288   1.460       .  S
C165        C273   1.471       .  S
C166        C309   1.471       .  S
C177        C178   1.538       .  S
C177        C181   1.522       .  S
C177       C1207   1.563       .  S
C177        C465   1.555       .  S
C178        H185   1.083       .  S
C178       C1203   1.372       .  D
C179        C180   1.561       .  S
C179       C1202   1.372       .  D
C179        C264   1.514       .  S
C180        C184   1.534       .  S
C180        C182   1.555       .  S
C180        H186   1.110       .  S
C181        H187   1.087       .  S
C181       C1206   1.359       .  D
C182       C1205   1.359       .  D
C182        C252   1.497       .  S
C183       C1201   1.563       .  S
C183        H188   1.084       .  S
C183        C184   1.377       .  D
C184        C480   1.504       .  S
C189        C190   1.541       .  S
C189        C195   1.551       .  S
C189        C705   1.528       .  S
C189        C228   1.557       .  S
C190        H197   1.083       .  S
C190        C191   1.368       .  D
C191        C192   1.559       .  S
C191        C492   1.510       .  S
C192        C196   1.539       .  S
C192        C706   1.562       .  S
C192        H198   1.109       .  S
C193        C701   1.528       .  S
C193        H199   1.084       .  S
C193        C194   1.365       .  D
C194        C704   1.563       .  S
C194        C501   1.513       .  S
C195        H200   1.085       .  S
C195        C196   1.376       .  D
C196        C240   1.503       .  S
C201        C202   1.529       .  S
C201        C205   1.532       .  S
C201       C1231   1.557       .  S
C201        C384   1.557       .  S
C202        H209   1.086       .  S
C202       C1227   1.364       .  D
C203        C204   1.562       .  S
C203       C1226   1.364       .  D
C203        C360   1.504       .  S
C204        C208   1.542       .  S
C204        C206   1.557       .  S
C204        H210   1.109       .  S
C205        H211   1.086       .  S
C205       C1230   1.373       .  D
C206       C1229   1.373       .  D
C206        C348   1.515       .  S
C207       C1225   1.557       .  S
C207        H212   1.080       .  S
C207        C208   1.371       .  D
C208        C369   1.501       .  S
C213        C219   1.550       .  S
C213        C217   1.543       .  S
C213        C726   1.533       .  S
C213        C333   1.558       .  S
C214        C725   1.533   1_545  S
C214        H221   1.087       .  S
C214        C215   1.361       .  D
C215        C728   1.558   1_545  S
C215        C396   1.504       .  S
C216        C220   1.541       .  S
C216        C218   1.560       .  S
C216        C727   1.558       .  S
C216        H222   1.109       .  S
C217        H223   1.079       .  S
C217        C218   1.368       .  D
C218        C408   1.514       .  S
C219        H224   1.086       .  S
C219        C220   1.377       .  D
C220        C321   1.503       .  S
C225        C230   1.409       .  A
C225        C738   1.409       .  A
C226        C227   1.405       .  A
C226        C737   1.409       .  A
C226        H231   1.085       .  S
C227        C740   1.422       .  A
C227        C234   1.446       .  S
C228        C229   1.419       .  A
C228        C739   1.422       .  A
C229        C230   1.413       .  A
C229        H232   1.079       .  S
C230        C233   1.442       .  S
C233        N235   1.157       .  T
C234        N236   1.158       .  T
C237        C242   1.419       .  A
C237        C750   1.407       .  A
C238        C239   1.414       .  A
C238        C749   1.407   1_545  A
C238        H243   1.085       .  S
C239        C752   1.418   1_545  A
C239        C246   1.442       .  S
C240        C241   1.400       .  A
C240        C751   1.419       .  A
C241        C242   1.400       .  A
C241        H244   1.085       .  S
C242        C245   1.440       .  S
C245        N247   1.155       .  T
C246        N248   1.157       .  T
C249        C250   1.406       .  A
C249       C1278   1.438       .  A
C250        C251   1.411       .  A
C250        H255   1.084       .  S
C251        C252   1.419       .  A
C251        C258   1.444       .  S
C252       C1277   1.391       .  A
C253        C254   1.404       .  A
C253       C1276   1.391       .  A
C253        H256   1.086       .  S
C254       C1273   1.438       .  A
C254        C257   1.446       .  S
C257        N259   1.158       .  T
C258        N260   1.157       .  T
C261        C266   1.429       .  A
C261       C1286   1.405       .  A
C262        C263   1.412   1_655  A
C262       C1285   1.405       .  A
C262        H267   1.084   1_655  S
C263       C1288   1.425   1_455  A
C263        C270   1.444       .  S
C264        C265   1.400       .  A
C264       C1287   1.425       .  A
C265        C266   1.407       .  A
C265        H268   1.084       .  S
C266        C269   1.444       .  S
C269        N271   1.157       .  T
C270        N272   1.157       .  T
C273        C274   1.401   1_554  A
C273        C278   1.407       .  A
C274        C275   1.394       .  A
C274        H279   1.085       .  S
C275        C276   1.410   1_556  A
C275        C282   1.445       .  S
C276        C277   1.402       .  A
C277        C278   1.392       .  A
C277        H280   1.085       .  S
C278        C281   1.445       .  S
C281        N283   1.157       .  T
C282        N284   1.157       .  T
C285        C286   1.399   1_554  A
C285        C290   1.409       .  A
C286        C287   1.393       .  A
C286        H291   1.085       .  S
C287        C288   1.408   1_556  A
C287        C294   1.445       .  S
C288        C289   1.394       .  A
C289        C290   1.389       .  A
C289        H292   1.085       .  S
C290        C293   1.442       .  S
C293        N295   1.156       .  T
C294        N296   1.157       .  T
C297        C298   1.401   1_554  A
C297        C302   1.404       .  A
C298        C299   1.393       .  A
C298        H303   1.085       .  S
C299        C300   1.407   1_556  A
C299        C306   1.445       .  S
C300        C301   1.401       .  A
C301        C302   1.390       .  A
C301        H304   1.085       .  S
C302        C305   1.444       .  S
C305        N307   1.157       .  T
C306        N308   1.157       .  T
C309        C310   1.398       .  A
C309        C314   1.409   1_554  A
C310        C311   1.393       .  A
C310        H315   1.085       .  S
C311        C312   1.409       .  A
C311        C318   1.438       .  S
C312        C313   1.403   1_554  A
C313        C314   1.392       .  A
C313        H316   1.085       .  S
C314        C317   1.445       .  S
C317        N319   1.157       .  T
C318        N320   1.154       .  T
C321        C326   1.413       .  A
C321        C834   1.411       .  A
C322        C323   1.414       .  A
C322        C833   1.411   1_545  A
C322        H327   1.084       .  S
C323        C324   1.413   1_545  A
C323        C330   1.442       .  S
C324        C837   1.408       .  A
C325        C326   1.402       .  A
C325        C836   1.408       .  A
C325        H328   1.086       .  S
C326        C329   1.444       .  S
C329        N331   1.157       .  T
C330        N332   1.157       .  T
C333        C334   1.421       .  A
C333        C850   1.422       .  A
C334        C335   1.409       .  A
C334        H339   1.075       .  S
C335        C848   1.407       .  A
C335        C342   1.444       .  S
C336        C337   1.405       .  A
C336        C847   1.407   1_545  A
C337        C338   1.406       .  A
C337        H340   1.085       .  S
C338        C845   1.422   1_545  A
C338        C341   1.444       .  S
C341        N343   1.157       .  T
C342        N344   1.157       .  T
C345        C346   1.404       .  A
C345       C1374   1.408       .  A
C346        C347   1.415       .  A
C346        H351   1.084       .  S
C347        C348   1.424       .  A
C347        C354   1.441       .  S
C348       C1373   1.409       .  A
C349        C350   1.401       .  A
C349       C1372   1.409   1_455  A
C349        H352   1.084       .  S
C350       C1369   1.408   1_455  A
C350        C353   1.443       .  S
C353        N355   1.156       .  T
C354        N356   1.157       .  T
C357        C362   1.417       .  A
C357       C1382   1.420       .  A
C358        C359   1.406       .  A
C358       C1381   1.420       .  A
C358        H363   1.084       .  S
C359       C1384   1.405       .  A
C359        C366   1.444       .  S
C360        C361   1.413       .  A
C360       C1383   1.405       .  A
C361        C362   1.414       .  A
C361        H364   1.085       .  S
C362        C365   1.442       .  S
C365        N367   1.157       .  T
C366        N368   1.157       .  T
C369        C370   1.407       .  A
C369        C374   1.415       .  A
C370        C371   1.412       .  A
C370        H375   1.084       .  S
C371        C372   1.414       .  A
C371        C378   1.442       .  S
C372        C373   1.408       .  A
C373        C374   1.403       .  A
C373        H376   1.086       .  S
C374        C377   1.446       .  S
C377        N379   1.158       .  T
C378        N380   1.157       .  T
C381        C382   1.407       .  A
C381        C386   1.428       .  A
C382        C383   1.418       .  A
C382        H387   1.084       .  S
C383        C384   1.429       .  A
C383        C390   1.444       .  S
C384        C385   1.402       .  A
C385        C386   1.397       .  A
C385        H388   1.076       .  S
C386        C389   1.447       .  S
C389        N391   1.157       .  T
C390        N392   1.157       .  T
C393        C394   1.414       .  A
C393        C398   1.418       .  A
C394        C395   1.407       .  A
C394        H399   1.084       .  S
C395        C396   1.409       .  A
C395        C402   1.444       .  S
C396        C397   1.410       .  A
C397        C398   1.418       .  A
C397        H400   1.084       .  S
C398        C401   1.443       .  S
C401        N403   1.157       .  T
C402        N916   1.157       .  T
N404        C914   1.157       .  T
C405        C406   1.417       .  A
C405        C410   1.415       .  A
C406        C407   1.408       .  A
C406        H411   1.084       .  S
C407        C408   1.409       .  A
C407        C414   1.442       .  S
C408        C409   1.416       .  A
C409        C410   1.411       .  A
C409        H412   1.084       .  S
C410        C413   1.444       .  S
C413        N415   1.158       .  T
C414        N416   1.157       .  T
C417        C418   1.401       .  A
C417        C422   1.409       .  A
C418        C419   1.393       .  A
C418        H423   1.085       .  S
C419        C420   1.407       .  A
C419        C426   1.445       .  S
C420        C421   1.397       .  A
C421        C422   1.391       .  A
C421        H424   1.085       .  S
C422        C425   1.443       .  S
C425        N427   1.157       .  T
C426        N428   1.157       .  T
C429        C430   1.401       .  A
C429        C434   1.408       .  A
C430        C431   1.388       .  A
C430        H435   1.085       .  S
C431        C432   1.406       .  A
C431        C438   1.445       .  S
C432        C433   1.400       .  A
C433        C434   1.391       .  A
C433        H436   1.085       .  S
C434        C437   1.444       .  S
C437        N439   1.157       .  T
C438        N440   1.157       .  T
C441        C442   1.397       .  A
C441        C446   1.406       .  A
C442        C443   1.390       .  A
C442        H447   1.085       .  S
C443        C444   1.406       .  A
C443        C450   1.444       .  S
C444        C445   1.399       .  A
C445        C446   1.391       .  A
C445        H448   1.085       .  S
C446        C449   1.445       .  S
C449        N451   1.157       .  T
C450        N452   1.157       .  T
C453        C454   1.400       .  A
C453        C458   1.408       .  A
C454        C455   1.392       .  A
C454        H459   1.085       .  S
C455        C456   1.409       .  A
C455        C462   1.445       .  S
C456        C457   1.400       .  A
C457        C458   1.392       .  A
C457        H460   1.085       .  S
C458        C461   1.444       .  S
C461        N463   1.157       .  T
C462        N464   1.157       .  T
C465        C466   1.404       .  A
C465        C470   1.430       .  A
C466        C467   1.399       .  A
C466        H471   1.082       .  S
C467        C468   1.424       .  A
C467        C474   1.445       .  S
C468        C469   1.407       .  A
C469        C470   1.419       .  A
C469        H472   1.084       .  S
C470        C473   1.444       .  S
C473        N475   1.158       .  T
C474        N476   1.157       .  T
C477        C478   1.409       .  A
C477        C482   1.414       .  A
C478        C479   1.402       .  A
C478        H483   1.085       .  S
C479        C480   1.412       .  A
C479        C486   1.444       .  S
C480        C481   1.411       .  A
C481        C482   1.414       .  A
C481        H484   1.084       .  S
C482        C485   1.443       .  S
C485        N487   1.157       .  T
C486        N488   1.157       .  T
C489        C490   1.418       .  A
C489        C494   1.418       .  A
C490        C491   1.408       .  A
C490        H495   1.084       .  S
C491        C492   1.408       .  A
C491        C498   1.442       .  S
C492        C493   1.412       .  A
C493        C494   1.414       .  A
C493        H496   1.085       .  S
C494        C497   1.442       .  S
C497        N499   1.157       .  T
C498        N500   1.157       .  T
C501        C502   1.400       .  A
C501        C506   1.430       .  A
C502        C503   1.403       .  A
C502        H507   1.079       .  S
C503        C504   1.419       .  A
C503        C510   1.444       .  S
C504        C505   1.400       .  A
C505        C506   1.408       .  A
C505        H508   1.085       .  S
C506        C509   1.443       .  S
C509        N511   1.157       .  T
C510        N512   1.157       .  T
O513        C524   1.304       .  A
O513       Eu549   2.523       .  S
O514        C525   1.306       .  A
O514       Eu548   2.544       .  S
O515        C526   1.286       .  A
O515       Eu521   2.439       .  S
O516        C527   1.285       .  A
O516       Eu521   2.429       .  S
O517        C527   1.281       .  A
O517       Eu551   2.414       .  S
O518        C526   1.282       .  A
O518       Eu550   2.419       .  S
O519        C525   1.290       .  A
O519       Eu521   2.448       .  S
O520        C524   1.287       .  A
O520       Eu521   2.432       .  S
Eu521       O531   2.357       .  S
Eu521       O523   2.348       .  S
Eu521       O522   2.335       .  S
Eu521       O529   2.342       .  S
O522       Eu551   2.338       .  S
O522       Eu548   2.362       .  S
O523       Eu549   2.382       .  S
O523       Eu550   2.339       .  S
C524       C1016   1.496       .  S
C525        C905   1.516       .  S
C526        C929   1.453       .  S
C527        C941   1.452       .  S
H528        O529   0.963       .  S
O529       Eu550   2.352       .  S
O529       Eu548   2.377       .  S
H530        O531   0.965       .  S
O531       Eu549   2.376       .  S
O531       Eu551   2.338       .  S
O532        C555   1.304       .  A
O532       Eu548   2.527       .  S
O533        C556   1.305       .  A
O533       Eu549   2.538       .  S
O534        C557   1.289       .  A
O534       Eu550   2.439       .  S
O535        C558   1.281       .  A
O535       Eu551   2.411       .  S
O536        C559   1.283       .  A
O536       Eu551   2.418       .  S
O537        C560   1.288       .  A
O537       Eu550   2.437       .  S
O538        C561   1.284       .  A
O538       Eu552   2.425       .  S
O539        C562   1.282       .  A
O539       Eu552   2.420       .  S
O540        C561   1.283       .  A
O540       Eu550   2.424       .  S
O541        C562   1.282       .  A
O541       Eu551   2.418       .  S
O542        C557   1.302       .  A
O542       Eu548   2.520       .  S
O543        C560   1.303       .  A
O543       Eu549   2.524       .  S
O544        C559   1.306       .  A
O544       Eu549   2.552       .  S
O545        C558   1.305       .  A
O545       Eu548   2.543       .  S
O546        C555   1.289       .  A
O546       Eu552   2.440       .  S
O547        C556   1.290       .  A
O547       Eu552   2.446       .  S
Eu548       O566   2.375       .  S
Eu548       O554   2.378       .  S
Eu549       O553   2.367       .  S
Eu549       O564   2.385       .  S
Eu550       O564   2.348       .  S
Eu550       O554   2.341       .  S
Eu551       O553   2.332       .  S
Eu551       O566   2.340       .  S
Eu552       O553   2.351       .  S
Eu552       O564   2.348       .  S
Eu552       O566   2.349       .  S
Eu552       O554   2.340       .  S
C555        C917   1.512       .  S
C556       C1001   1.520       .  S
C557        C884   1.494       .  S
C558        C893   1.514       .  S
C559        C980   1.512       .  S
C560        C989   1.499       .  S
C561        C965   1.454       .  S
C562        C953   1.444       .  S
H563        O564   0.967       .  S
H565        O566   0.967       .  S
N567        C572   1.345       .  A
N567        H599   1.041       .  S
N568       C1599   1.341   1_455  A
N568        C576   1.342       .  A
N569        C574   1.346   1_545  A
N569        H600   1.041       .  S
N570       C1601   1.344   1_455  A
N570        C578   1.344       .  A
C571        C579   1.386       .  A
C571        C587   1.401       .  A
C572        C588   1.404       .  A
C572        C580   1.388       .  A
C573        C581   1.387       .  A
C573        C590   1.402       .  A
C574        C589   1.400       .  A
C574        C582   1.387       .  A
C575       N1592   1.341       .  A
C575        C587   1.398       .  A
C575        C583   1.386       .  A
C576        C590   1.397       .  A
C576        C584   1.386       .  A
C577       N1594   1.344       .  A
C577        C585   1.386       .  A
C577        C588   1.401       .  A
C578        C586   1.387       .  A
C578        C589   1.401       .  A
C579        H591   1.082       .  S
C580        H592   1.082       .  S
C581        H593   1.083       .  S
C582        H594   1.082       .  S
C583       C1608   1.372       .  A
C583        H595   1.082       .  S
C584       C1607   1.372   1_455  A
C584        H596   1.082       .  S
C585       C1610   1.374       .  A
C585        H597   1.082       .  S
C586       C1609   1.374       .  A
C586        H598   1.082       .  S
C587        C932   1.463       .  S
C588        C968   1.467       .  S
C589        C956   1.462       .  S
C590        C944   1.463       .  S
O601        C612   1.307       .  A
O602        C613   1.310       .  A
O602       Eu636   2.564       .  S
O603        C614   1.286   1_556  A
O603      Eu1633   2.434   1_455  S
O604        C615   1.284       .  A
O604       Eu609   2.430       .  S
O605        C615   1.282       .  A
O605       Eu639   2.417       .  S
O606        C614   1.283       .  A
O606       Eu638   2.420   1_564  S
O607        C613   1.279       .  A
O607       Eu609   2.401   1_554  S
O608        C612   1.287       .  A
O608       Eu609   2.430       .  S
Eu609      O1627   2.435       .  S
Eu609       O619   2.342       .  S
Eu609      O1635   2.338       .  S
Eu609       O610   2.347   1_556  S
Eu609      O1641   2.345   1_556  S
O610       Eu639   2.341   1_554  S
O610       Eu636   2.373       .  S
O611      Eu1633   2.338   1_455  S
O611      Eu1149   2.369   1_455  S
O611       Eu638   2.346   1_565  S
C612        C869   1.519       .  S
C613        C761   1.517       .  S
C614        C788   1.458       .  S
C615        C797   1.448   1_556  S
H616        O617   0.965       .  S
O617      Eu1633   2.345   1_454  S
O617       Eu638   2.343   1_564  S
O617      Eu1660   2.365   1_455  S
H618        O619   0.965       .  S
O619       Eu639   2.343       .  S
O620        C643   1.307       .  A
O621        C644   1.302       .  A
O621       Eu637   2.518       .  S
O622        C645   1.285       .  A
O622       Eu638   2.419   1_554  S
O623        C646   1.287       .  A
O623       Eu639   2.433   1_554  S
O624        C647   1.286       .  A
O625        C648   1.285       .  A
O626        C649   1.288       .  A
O626      Eu1664   2.450   1_454  S
O627        C650   1.287       .  A
O627       Eu640   2.438   1_554  S
O628        C649   1.283   1_556  A
O629        C650   1.282   1_556  A
O630        C645   1.306   1_565  A
O630      Eu1660   2.544   1_455  S
O631        C648   1.303       .  A
O631      Eu1661   2.525   1_455  S
O632        C647   1.303       .  A
O632       Eu637   2.528       .  S
O633        C646   1.305       .  A
O633       Eu636   2.538       .  S
O634        C643   1.287       .  A
O634       Eu640   2.439   1_554  S
O635        C644   1.290       .  A
O635       Eu640   2.453       .  S
Eu636      O1654   2.544       .  S
Eu636      O1641   2.366       .  S
Eu636      O1154   2.380   1_565  S
Eu637      O1655   2.525       .  S
Eu637      O1123   2.369       .  S
Eu637       O641   2.383       .  S
Eu637      O1676   2.382       .  S
Eu640      O1650   2.450   1_556  S
Eu640       O641   2.353       .  S
Eu640      O1676   2.353       .  S
Eu640       O654   2.349   1_556  S
Eu640      O1666   2.349   1_556  S
O642      Eu1148   2.380   1_455  S
O642      Eu1664   2.349   1_454  S
C643        C773   1.514       .  S
C644        C857   1.489       .  S
C645        C737   1.502       .  S
C646        C749   1.500       .  S
C647        C836   1.495       .  S
C648        C848   1.491       .  S
C649        C824   1.463       .  S
C650        C812   1.453       .  S
H651        O652   0.966       .  S
O652      Eu1661   2.382   1_455  S
O652      Eu1664   2.353   1_455  S
H653        O654   0.965       .  S
N655        C660   1.346       .  A
N655        C659   1.347       .  A
N655        H687   1.041       .  S
N656        C663   1.343       .  A
N656        C664   1.342       .  A
N657        C662   1.347       .  A
N657        C661   1.348       .  A
N657        H688   1.042       .  S
N658        C665   1.341       .  A
N658        C666   1.343       .  A
C659        C667   1.387   1_554  A
C659        C675   1.403       .  A
C660        C676   1.402       .  A
C660        C668   1.388   1_554  A
C661        C669   1.386   1_554  A
C661        C678   1.404       .  A
C662        C677   1.407       .  A
C662        C670   1.388   1_554  A
C663        C675   1.396       .  A
C663        C671   1.385       .  A
C664        C678   1.400       .  A
C664        C672   1.387       .  A
C665        C673   1.386       .  A
C665        C676   1.399       .  A
C666        C674   1.386       .  A
C666        C677   1.400       .  A
C667        C668   1.373       .  A
C667        H679   1.082       .  S
C668        H680   1.083       .  S
C669        C670   1.375       .  A
C669        H681   1.082       .  S
C670        H682   1.082       .  S
C671        C672   1.373       .  A
C671        H683   1.082       .  S
C672        H684   1.082       .  S
C673        C674   1.375       .  A
C673        H685   1.082       .  S
C674        H686   1.082       .  S
C675        C809   1.465       .  S
C676        C800   1.459       .  S
C677        C785   1.471       .  S
C678        C821   1.470       .  S
C689        C690   1.538       .  S
C689       C1719   1.563       .  S
C689        C693   1.522       .  S
C689        C977   1.555       .  S
C690        H697   1.083       .  S
C690       C1715   1.372       .  D
C691        C692   1.560       .  S
C691       C1714   1.372       .  D
C691        C776   1.513       .  S
C692        C696   1.534       .  S
C692        C694   1.554       .  S
C692        H698   1.110       .  S
C693        H699   1.087       .  S
C693       C1718   1.359       .  D
C694       C1717   1.359       .  D
C694        C764   1.497       .  S
C695       C1713   1.563       .  S
C695        H700   1.084       .  S
C695        C696   1.378       .  D
C696        C992   1.504       .  S
C701        C702   1.541   1_545  S
C701        C707   1.551   1_545  S
C701        C740   1.556       .  S
C702        H709   1.083       .  S
C702        C703   1.368       .  D
C703        C704   1.560   1_565  S
C703       C1004   1.510       .  S
C704        C708   1.538       .  S
C704        H710   1.109       .  S
C705        H711   1.084       .  S
C705        C706   1.365       .  D
C706       C1013   1.513       .  S
C707        H712   1.085       .  S
C707        C708   1.376   1_565  D
C708        C752   1.502   1_545  S
C713        C714   1.529       .  S
C713       C1743   1.557       .  S
C713        C717   1.532       .  S
C713        C896   1.557       .  S
C714        H721   1.086       .  S
C714       C1739   1.364       .  D
C715        C716   1.562       .  S
C715       C1738   1.364       .  D
C715        C872   1.504       .  S
C716        C720   1.542       .  S
C716        C718   1.558       .  S
C716        H722   1.109       .  S
C717        H723   1.086       .  S
C717       C1742   1.373       .  D
C718       C1741   1.373       .  D
C718        C860   1.515       .  S
C719       C1737   1.557       .  S
C719        H724   1.080       .  S
C719        C720   1.372       .  D
C720        C881   1.501       .  S
C725        C731   1.550       .  S
C725        C729   1.544       .  S
C725        C845   1.559       .  S
C726        H733   1.087       .  S
C726        C727   1.361       .  D
C727        C908   1.504       .  S
C728        C732   1.541       .  S
C728        C730   1.560       .  S
C728        H734   1.109       .  S
C729        H735   1.078       .  S
C729        C730   1.368       .  D
C730        C920   1.515       .  S
C731        H736   1.086       .  S
C731        C732   1.377       .  D
C732        C833   1.503       .  S
C737        C742   1.409   1_545  A
C738        C739   1.405       .  A
C738        H743   1.086       .  S
C739        C746   1.446       .  S
C740        C741   1.419   1_545  A
C741        C742   1.413       .  A
C741        H744   1.079       .  S
C742        C745   1.442       .  S
C745        N747   1.157       .  T
C746        N748   1.158       .  T
C749        C754   1.419       .  A
C750        C751   1.414       .  A
C750        H755   1.085       .  S
C751        C758   1.442       .  S
C752        C753   1.400       .  A
C753        C754   1.400       .  A
C753        H756   1.085       .  S
C754        C757   1.440       .  S
C757        N759   1.155       .  T
C758        N760   1.157       .  T
C761        C762   1.406       .  A
C761       C1790   1.438       .  A
C762        C763   1.411       .  A
C762        H767   1.084       .  S
C763        C764   1.418       .  A
C763        C770   1.444       .  S
C764       C1789   1.391       .  A
C765       C1788   1.391       .  A
C765        C766   1.404       .  A
C765        H768   1.086       .  S
C766       C1785   1.438       .  A
C766        C769   1.446       .  S
C769        N771   1.158       .  T
C770        N772   1.157       .  T
C773       C1798   1.405       .  A
C773        C778   1.429       .  A
C774       C1797   1.406       .  A
C774        C775   1.412   1_655  A
C774        H779   1.084   1_655  S
C775       C1800   1.425   1_455  A
C775        C782   1.444       .  S
C776       C1799   1.425       .  A
C776        C777   1.400       .  A
C777        C778   1.407       .  A
C777        H780   1.085       .  S
C778        C781   1.444       .  S
C781        N783   1.157       .  T
C782        N784   1.157       .  T
C785        C786   1.401   1_554  A
C785        C790   1.407       .  A
C786        C787   1.393       .  A
C786        H791   1.085       .  S
C787        C788   1.410   1_556  A
C787        C794   1.445       .  S
C788        C789   1.402       .  A
C789        C790   1.392       .  A
C789        H792   1.085       .  S
C790        C793   1.445       .  S
C793        N795   1.157       .  T
C794        N796   1.157       .  T
C797        C798   1.399   1_554  A
C797        C802   1.409       .  A
C798        C799   1.393       .  A
C798        H803   1.085       .  S
C799        C800   1.408   1_556  A
C799        C806   1.445       .  S
C800        C801   1.394       .  A
C801        C802   1.388       .  A
C801        H804   1.085       .  S
C802        C805   1.442       .  S
C805        N807   1.156       .  T
C806        N808   1.157       .  T
C809        C810   1.401   1_554  A
C809        C814   1.404       .  A
C810        C811   1.393       .  A
C810        H815   1.085       .  S
C811        C812   1.408   1_556  A
C811        C818   1.445       .  S
C812        C813   1.401       .  A
C813        C814   1.390       .  A
C813        H816   1.085       .  S
C814        C817   1.445       .  S
C817        N819   1.157       .  T
C818        N820   1.157       .  T
C821        C822   1.398       .  A
C821        C826   1.408   1_554  A
C822        C823   1.393       .  A
C822        H827   1.085       .  S
C823        C824   1.409       .  A
C823        C830   1.438       .  S
C824        C825   1.402   1_554  A
C825        C826   1.392       .  A
C825        H828   1.084       .  S
C826        C829   1.444       .  S
C829        N831   1.157       .  T
C830        N832   1.155       .  T
C833        C838   1.413       .  A
C834        C835   1.414       .  A
C834        H839   1.084       .  S
C835        C836   1.413       .  A
C835        C842   1.442       .  S
C837        C838   1.402       .  A
C837        H840   1.086       .  S
C838        C841   1.444       .  S
C841        N843   1.157       .  T
C842        N844   1.157       .  T
C845        C846   1.421       .  A
C846        C847   1.409       .  A
C846        H851   1.075       .  S
C847        C854   1.444       .  S
C848        C849   1.405       .  A
C849        C850   1.406       .  A
C849        H852   1.085       .  S
C850        C853   1.444       .  S
C853        N855   1.157       .  T
C854        N856   1.157       .  T
C857        C858   1.404       .  A
C857       C1886   1.408       .  A
C858        C859   1.415       .  A
C858        H863   1.084       .  S
C859        C860   1.424       .  A
C859        C866   1.441       .  S
C860       C1885   1.409       .  A
C861       C1884   1.410   1_455  A
C861        C862   1.401       .  A
C861        H864   1.084       .  S
C862       C1881   1.408   1_455  A
C862        C865   1.443       .  S
C865        N867   1.156       .  T
C866        N868   1.157       .  T
C869       C1894   1.420       .  A
C869        C874   1.416       .  A
C870       C1893   1.420       .  A
C870        C871   1.407       .  A
C870        H875   1.084       .  S
C871       C1896   1.405       .  A
C871        C878   1.444       .  S
C872       C1895   1.405       .  A
C872        C873   1.413       .  A
C873        C874   1.414       .  A
C873        H876   1.085       .  S
C874        C877   1.442       .  S
C877        N879   1.157       .  T
C878        N880   1.157       .  T
C881        C882   1.407       .  A
C881        C886   1.415       .  A
C882        C883   1.412       .  A
C882        H887   1.084       .  S
C883        C884   1.414       .  A
C883        C890   1.442       .  S
C884        C885   1.407       .  A
C885        C886   1.402       .  A
C885        H888   1.086       .  S
C886        C889   1.446       .  S
C889        N891   1.158       .  T
C890        N892   1.157       .  T
C893        C894   1.407       .  A
C893        C898   1.428       .  A
C894        C895   1.418       .  A
C894        H899   1.084       .  S
C895        C896   1.429       .  A
C895        C902   1.444       .  S
C896        C897   1.402       .  A
C897        C898   1.397       .  A
C897        H900   1.076       .  S
C898        C901   1.447       .  S
C901        N903   1.157       .  T
C902        N904   1.157       .  T
C905        C906   1.415       .  A
C905        C910   1.418       .  A
C906        C907   1.407       .  A
C906        H911   1.084       .  S
C907        C908   1.409       .  A
C907        C914   1.444       .  S
C908        C909   1.410       .  A
C909        C910   1.418       .  A
C909        H912   1.084       .  S
C910        C913   1.442       .  S
C913        N915   1.157       .  T
C917        C918   1.417       .  A
C917        C922   1.415       .  A
C918        C919   1.408       .  A
C918        H923   1.084       .  S
C919        C920   1.409       .  A
C919        C926   1.442       .  S
C920        C921   1.416       .  A
C921        C922   1.411       .  A
C921        H924   1.084       .  S
C922        C925   1.444       .  S
C925        N927   1.158       .  T
C926        N928   1.157       .  T
C929        C930   1.401       .  A
C929        C934   1.409       .  A
C930        C931   1.393       .  A
C930        H935   1.085       .  S
C931        C932   1.407       .  A
C931        C938   1.445       .  S
C932        C933   1.397       .  A
C933        C934   1.391       .  A
C933        H936   1.085       .  S
C934        C937   1.443       .  S
C937        N939   1.157       .  T
C938        N940   1.157       .  T
C941        C942   1.401       .  A
C941        C946   1.408       .  A
C942        C943   1.388       .  A
C942        H947   1.085       .  S
C943        C944   1.406       .  A
C943        C950   1.445       .  S
C944        C945   1.400       .  A
C945        C946   1.391       .  A
C945        H948   1.085       .  S
C946        C949   1.444       .  S
C949        N951   1.157       .  T
C950        N952   1.157       .  T
C953        C954   1.398       .  A
C953        C958   1.406       .  A
C954        C955   1.390       .  A
C954        H959   1.085       .  S
C955        C956   1.407       .  A
C955        C962   1.444       .  S
C956        C957   1.399       .  A
C957        C958   1.391       .  A
C957        H960   1.085       .  S
C958        C961   1.445       .  S
C961        N963   1.157       .  T
C962        N964   1.157       .  T
C965        C966   1.400       .  A
C965        C970   1.407       .  A
C966        C967   1.392       .  A
C966        H971   1.085       .  S
C967        C968   1.409       .  A
C967        C974   1.445       .  S
C968        C969   1.400       .  A
C969        C970   1.392       .  A
C969        H972   1.085       .  S
C970        C973   1.444       .  S
C973        N975   1.157       .  T
C974        N976   1.157       .  T
C977        C978   1.404       .  A
C977        C982   1.430       .  A
C978        C979   1.399       .  A
C978        H983   1.082       .  S
C979        C980   1.424       .  A
C979        C986   1.445       .  S
C980        C981   1.407       .  A
C981        C982   1.419       .  A
C981        H984   1.084       .  S
C982        C985   1.444       .  S
C985        N987   1.158       .  T
C986        N988   1.157       .  T
C989        C990   1.409       .  A
C989        C994   1.414       .  A
C990        C991   1.402       .  A
C990        H995   1.085       .  S
C991        C992   1.412       .  A
C991        C998   1.444       .  S
C992        C993   1.412       .  A
C993        C994   1.414       .  A
C993        H996   1.084       .  S
C994        C997   1.443       .  S
C997        N999   1.157       .  T
C998       N1000   1.157       .  T
C1001      C1002   1.418       .  A
C1001      C1006   1.418       .  A
C1002      C1003   1.408       .  A
C1002      H1007   1.084       .  S
C1003      C1004   1.408       .  A
C1003      C1010   1.442       .  S
C1004      C1005   1.413       .  A
C1005      C1006   1.414       .  A
C1005      H1008   1.085       .  S
C1006      C1009   1.442       .  S
C1009      N1011   1.157       .  T
C1010      N1012   1.157       .  T
C1013      C1014   1.400       .  A
C1013      C1018   1.429       .  A
C1014      C1015   1.403       .  A
C1014      H1019   1.079       .  S
C1015      C1016   1.419       .  A
C1015      C1022   1.444       .  S
C1016      C1017   1.399       .  A
C1017      C1018   1.408       .  A
C1017      H1020   1.085       .  S
C1018      C1021   1.443       .  S
C1021      N1023   1.157       .  T
C1022      N1024   1.157       .  T
O1025      C1036   1.304       .  A
O1025     Eu1061   2.524       .  S
O1026      C1037   1.306       .  A
O1026     Eu1060   2.544       .  S
O1027      C1038   1.286       .  A
O1027     Eu1033   2.440       .  S
O1028      C1039   1.285       .  A
O1028     Eu1033   2.428       .  S
O1029      C1039   1.281       .  A
O1029     Eu1063   2.414       .  S
O1030      C1038   1.282       .  A
O1030     Eu1062   2.419       .  S
O1031      C1037   1.290       .  A
O1031     Eu1033   2.448       .  S
O1032      C1036   1.287       .  A
O1032     Eu1033   2.432       .  S
Eu1033     O1043   2.357       .  S
Eu1033     O1035   2.348       .  S
Eu1033     O1034   2.335       .  S
Eu1033     O1041   2.341       .  S
O1034     Eu1063   2.338       .  S
O1034     Eu1060   2.362       .  S
O1035     Eu1061   2.382       .  S
O1035     Eu1062   2.340       .  S
C1036      C1528   1.497       .  S
C1037      C1417   1.516       .  S
C1038      C1441   1.453       .  S
C1039      C1453   1.451       .  S
H1040      O1041   0.963       .  S
O1041     Eu1062   2.352       .  S
O1041     Eu1060   2.377       .  S
H1042      O1043   0.965       .  S
O1043     Eu1061   2.376       .  S
O1043     Eu1063   2.337       .  S
O1044      C1067   1.304       .  A
O1044     Eu1060   2.528       .  S
O1045      C1068   1.306       .  A
O1045     Eu1061   2.538       .  S
O1046      C1069   1.289       .  A
O1046     Eu1062   2.439       .  S
O1047      C1070   1.281       .  A
O1047     Eu1063   2.411       .  S
O1048      C1071   1.283       .  A
O1048     Eu1063   2.419       .  S
O1049      C1072   1.288       .  A
O1049     Eu1062   2.437       .  S
O1050      C1073   1.284       .  A
O1050     Eu1064   2.426       .  S
O1051      C1074   1.282       .  A
O1051     Eu1064   2.419       .  S
O1052      C1073   1.283       .  A
O1052     Eu1062   2.424       .  S
O1053      C1074   1.282       .  A
O1053     Eu1063   2.418       .  S
O1054      C1069   1.302       .  A
O1054     Eu1060   2.520       .  S
O1055      C1072   1.303       .  A
O1055     Eu1061   2.524       .  S
O1056      C1071   1.306       .  A
O1056     Eu1061   2.552       .  S
O1057      C1070   1.305       .  A
O1057     Eu1060   2.543       .  S
O1058      C1067   1.289       .  A
O1058     Eu1064   2.440       .  S
O1059      C1068   1.290       .  A
O1059     Eu1064   2.445       .  S
Eu1060     O1078   2.375       .  S
Eu1060     O1066   2.379       .  S
Eu1061     O1065   2.367       .  S
Eu1061     O1076   2.385       .  S
Eu1062     O1076   2.347       .  S
Eu1062     O1066   2.341       .  S
Eu1063     O1065   2.332       .  S
Eu1063     O1078   2.341       .  S
Eu1064     O1065   2.352       .  S
Eu1064     O1076   2.347       .  S
Eu1064     O1078   2.349       .  S
Eu1064     O1066   2.340       .  S
C1067      C1429   1.512       .  S
C1068      C1513   1.520       .  S
C1069      C1396   1.494       .  S
C1070      C1405   1.514       .  S
C1071      C1492   1.513       .  S
C1072      C1501   1.499       .  S
C1073      C1477   1.454       .  S
C1074      C1465   1.444       .  S
H1075      O1076   0.967       .  S
H1077      O1078   0.967       .  S
N1079      C1084   1.345       .  A
N1079      C1595   1.348       .  A
N1079      H1111   1.041       .  S
N1080      C1088   1.342       .  A
N1081      C1086   1.346       .  A
N1081      C1597   1.345       .  A
N1081      H1112   1.041       .  S
N1082      C1090   1.343       .  A
C1083      N1591   1.348   1_545  A
C1083      C1091   1.386       .  A
C1083      C1099   1.401       .  A
C1084      C1100   1.404       .  A
C1084      C1092   1.388       .  A
C1085      N1593   1.345       .  A
C1085      C1093   1.387       .  A
C1085      C1102   1.402       .  A
C1086      C1101   1.400       .  A
C1086      C1094   1.387       .  A
C1087      C1099   1.398       .  A
C1087      C1095   1.386       .  A
C1088      C1102   1.397       .  A
C1088      C1096   1.386       .  A
C1089      C1097   1.386   1_655  A
C1089      C1100   1.401       .  A
C1090      C1098   1.387       .  A
C1090      C1101   1.401       .  A
C1091      C1604   1.373   1_545  A
C1091      H1103   1.082       .  S
C1092      C1603   1.373       .  A
C1092      H1104   1.082       .  S
C1093      C1606   1.373   1_545  A
C1093      H1105   1.083       .  S
C1094      C1605   1.373       .  A
C1094      H1106   1.082       .  S
C1095      H1107   1.083       .  S
C1096      H1108   1.082       .  S
C1097      H1109   1.082   1_455  S
C1098      H1110   1.082       .  S
C1099      C1444   1.463       .  S
C1100      C1480   1.467       .  S
C1101      C1468   1.462       .  S
C1102      C1456   1.463       .  S
O1113      C1124   1.306       .  A
O1113     Eu1661   2.547       .  S
O1114      C1125   1.310       .  A
O1114     Eu1148   2.565       .  S
O1115      C1126   1.286   1_556  A
O1116      C1127   1.284       .  A
O1116     Eu1121   2.431       .  S
O1117      C1127   1.282       .  A
O1117     Eu1151   2.418       .  S
O1118      C1126   1.283       .  A
O1118     Eu1150   2.421   1_554  S
O1119      C1125   1.279       .  A
O1119     Eu1121   2.401   1_554  S
O1120      C1124   1.287       .  A
O1120     Eu1121   2.431       .  S
Eu1121     O1131   2.342       .  S
Eu1121     O1122   2.347   1_556  S
O1122     Eu1151   2.341   1_554  S
O1122     Eu1148   2.373       .  S
O1123     Eu1150   2.347       .  S
C1124      C1381   1.519       .  S
C1125      C1273   1.517       .  S
C1126      C1300   1.459       .  S
C1127      C1309   1.449   1_556  S
H1128      O1129   0.965       .  S
O1129     Eu1150   2.343   1_554  S
H1130      O1131   0.965       .  S
O1131     Eu1661   2.368       .  S
O1131     Eu1151   2.344       .  S
O1132      C1155   1.307       .  A
O1132     Eu1660   2.542   1_545  S
O1133      C1156   1.302       .  A
O1133     Eu1149   2.518   1_545  S
O1134      C1157   1.285       .  A
O1134     Eu1150   2.419   1_554  S
O1135      C1158   1.287       .  A
O1135     Eu1151   2.433   1_554  S
O1136      C1159   1.286       .  A
O1136     Eu1663   2.426       .  S
O1137      C1160   1.286       .  A
O1137     Eu1662   2.427       .  S
O1138      C1161   1.288       .  A
O1139      C1162   1.287       .  A
O1139     Eu1152   2.439   1_554  S
O1140      C1161   1.283   1_556  A
O1140     Eu1662   2.417       .  S
O1141      C1162   1.281   1_556  A
O1141     Eu1663   2.414   1_545  S
O1142      C1157   1.307       .  A
O1143      C1160   1.303   1_565  A
O1144      C1159   1.303       .  A
O1144     Eu1149   2.528       .  S
O1145      C1158   1.305       .  A
O1145     Eu1148   2.539       .  S
O1146      C1155   1.288       .  A
O1146     Eu1152   2.441   1_554  S
O1147      C1156   1.290       .  A
O1147     Eu1152   2.452       .  S
Eu1148     O1644   2.543       .  S
Eu1148     O1678   2.373       .  S
Eu1149     O1625   2.547       .  S
Eu1149     O1643   2.367       .  S
Eu1149     O1153   2.383   1_565  S
Eu1150     O1649   2.426       .  S
Eu1150     O1652   2.419       .  S
Eu1150     O1676   2.338       .  S
Eu1150     O1666   2.342   1_556  S
Eu1151     O1648   2.425       .  S
Eu1151     O1653   2.416       .  S
Eu1151     O1665   2.345       .  S
Eu1151     O1678   2.343   1_556  S
Eu1152     O1153   2.354       .  S
Eu1152     O1166   2.348   1_556  S
O1153     Eu1663   2.345   1_545  S
O1154     Eu1662   2.342   1_554  S
C1155      C1285   1.513       .  S
C1156      C1369   1.488       .  S
C1157      C1249   1.503       .  S
C1158      C1261   1.500       .  S
C1159      C1348   1.495       .  S
C1160      C1360   1.492       .  S
C1161      C1336   1.464       .  S
C1162      C1324   1.452       .  S
H1163      O1164   0.966       .  S
O1164     Eu1662   2.337       .  S
H1165      O1166   0.965       .  S
O1166     Eu1660   2.372   1_545  S
O1166     Eu1663   2.343   1_544  S
N1167      C1172   1.346       .  A
N1167      C1171   1.347       .  A
N1167      H1199   1.041       .  S
N1168      C1175   1.342       .  A
N1168      C1176   1.342       .  A
N1169      C1174   1.346       .  A
N1169      C1173   1.348       .  A
N1169      H1200   1.042       .  S
N1170      C1177   1.342       .  A
N1170      C1178   1.343       .  A
C1171      C1179   1.387   1_554  A
C1171      C1187   1.404       .  A
C1172      C1188   1.403       .  A
C1172      C1180   1.388   1_554  A
C1173      C1181   1.386   1_554  A
C1173      C1190   1.405       .  A
C1174      C1189   1.407       .  A
C1174      C1182   1.388   1_554  A
C1175      C1187   1.396       .  A
C1175      C1183   1.385       .  A
C1176      C1190   1.400       .  A
C1176      C1184   1.387       .  A
C1177      C1185   1.386       .  A
C1177      C1188   1.399       .  A
C1178      C1186   1.386       .  A
C1178      C1189   1.401       .  A
C1179      C1180   1.374       .  A
C1179      H1191   1.082       .  S
C1180      H1192   1.083       .  S
C1181      C1182   1.375       .  A
C1181      H1193   1.082       .  S
C1182      H1194   1.082       .  S
C1183      C1184   1.373       .  A
C1183      H1195   1.082       .  S
C1184      H1196   1.082       .  S
C1185      C1186   1.375       .  A
C1185      H1197   1.082       .  S
C1186      H1198   1.082       .  S
C1187      C1321   1.464       .  S
C1188      C1312   1.460       .  S
C1189      C1297   1.471       .  S
C1190      C1333   1.471       .  S
C1201      C1202   1.538       .  S
C1201      C1205   1.522       .  S
C1201      C1489   1.554       .  S
C1202      H1209   1.083       .  S
C1203      C1204   1.561   1_455  S
C1203      C1288   1.514   1_455  S
C1204      C1208   1.533       .  S
C1204      C1206   1.555   1_655  S
C1204      H1210   1.110       .  S
C1205      H1211   1.087       .  S
C1206      C1276   1.497   1_455  S
C1207      H1212   1.084       .  S
C1207      C1208   1.377   1_455  D
C1208      C1504   1.504       .  S
C1213      C1214   1.541       .  S
C1213      C1219   1.551       .  S
C1213      C1729   1.528       .  S
C1213      C1252   1.557       .  S
C1214      H1221   1.083       .  S
C1214      C1215   1.368       .  D
C1215      C1216   1.559       .  S
C1215      C1516   1.510       .  S
C1216      C1220   1.539       .  S
C1216      C1730   1.562       .  S
C1216      H1222   1.109       .  S
C1217      C1725   1.528       .  S
C1217      H1223   1.084       .  S
C1217      C1218   1.365       .  D
C1218      C1728   1.563       .  S
C1218      C1525   1.513       .  S
C1219      H1224   1.085       .  S
C1219      C1220   1.376       .  D
C1220      C1264   1.503       .  S
C1225      C1226   1.529       .  S
C1225      C1229   1.532       .  S
C1225      C1408   1.557       .  S
C1226      H1233   1.086       .  S
C1227      C1228   1.562   1_455  S
C1227      C1384   1.504   1_455  S
C1228      C1232   1.541       .  S
C1228      C1230   1.557   1_655  S
C1228      H1234   1.109       .  S
C1229      H1235   1.086       .  S
C1230      C1372   1.515   1_455  S
C1231      H1236   1.080       .  S
C1231      C1232   1.371   1_455  D
C1232      C1393   1.501       .  S
C1237      C1750   1.533       .  S
C1237      C1243   1.550       .  S
C1237      C1241   1.543       .  S
C1237      C1357   1.558       .  S
C1238      C1749   1.533   1_545  S
C1238      H1245   1.087       .  S
C1238      C1239   1.361       .  D
C1239      C1752   1.558   1_545  S
C1239      C1420   1.504       .  S
C1240      C1751   1.558       .  S
C1240      C1244   1.541       .  S
C1240      C1242   1.560       .  S
C1240      H1246   1.109       .  S
C1241      H1247   1.079       .  S
C1241      C1242   1.368       .  D
C1242      C1432   1.514       .  S
C1243      H1248   1.086       .  S
C1243      C1244   1.377       .  D
C1244      C1345   1.503       .  S
C1249      C1762   1.409       .  A
C1249      C1254   1.409       .  A
C1250      C1761   1.409       .  A
C1250      C1251   1.405       .  A
C1250      H1255   1.086       .  S
C1251      C1764   1.422       .  A
C1251      C1258   1.446       .  S
C1252      C1763   1.422       .  A
C1252      C1253   1.419       .  A
C1253      C1254   1.413       .  A
C1253      H1256   1.079       .  S
C1254      C1257   1.442       .  S
C1257      N1259   1.157       .  T
C1258      N1260   1.158       .  T
C1261      C1774   1.407       .  A
C1261      C1266   1.419       .  A
C1262      C1773   1.407   1_545  A
C1262      C1263   1.414       .  A
C1262      H1267   1.085       .  S
C1263      C1776   1.418   1_545  A
C1263      C1270   1.442       .  S
C1264      C1775   1.419       .  A
C1264      C1265   1.400       .  A
C1265      C1266   1.400       .  A
C1265      H1268   1.085       .  S
C1266      C1269   1.440       .  S
C1269      N1271   1.155       .  T
C1270      N1272   1.157       .  T
C1273      C1274   1.406       .  A
C1274      C1275   1.411       .  A
C1274      H1279   1.084       .  S
C1275      C1276   1.418       .  A
C1275      C1282   1.444   1_655  S
C1277      C1278   1.404       .  A
C1277      H1280   1.086       .  S
C1278      C1281   1.446       .  S
C1281      N1283   1.158       .  T
C1282      N1284   1.157       .  T
C1285      C1290   1.429       .  A
C1286      C1287   1.412       .  A
C1286      H1291   1.084       .  S
C1287      C1294   1.444       .  S
C1288      C1289   1.400       .  A
C1289      C1290   1.407       .  A
C1289      H1292   1.084       .  S
C1290      C1293   1.444       .  S
C1293      N1295   1.157       .  T
C1294      N1296   1.157       .  T
C1297      C1298   1.401   1_554  A
C1297      C1302   1.407       .  A
C1298      C1299   1.394       .  A
C1298      H1303   1.085       .  S
C1299      C1300   1.410   1_556  A
C1299      C1306   1.445       .  S
C1300      C1301   1.402       .  A
C1301      C1302   1.392       .  A
C1301      H1304   1.085       .  S
C1302      C1305   1.445       .  S
C1305      N1307   1.157       .  T
C1306      N1308   1.157       .  T
C1309      C1310   1.399   1_554  A
C1309      C1314   1.409       .  A
C1310      C1311   1.393       .  A
C1310      H1315   1.085       .  S
C1311      C1312   1.408   1_556  A
C1311      C1318   1.445       .  S
C1312      C1313   1.394       .  A
C1313      C1314   1.389       .  A
C1313      H1316   1.085       .  S
C1314      C1317   1.442       .  S
C1317      N1319   1.156       .  T
C1318      N1320   1.157       .  T
C1321      C1322   1.401   1_554  A
C1321      C1326   1.404       .  A
C1322      C1323   1.393       .  A
C1322      H1327   1.085       .  S
C1323      C1324   1.407   1_556  A
C1323      C1330   1.445       .  S
C1324      C1325   1.401       .  A
C1325      C1326   1.390       .  A
C1325      H1328   1.085       .  S
C1326      C1329   1.444       .  S
C1329      N1331   1.157       .  T
C1330      N1332   1.157       .  T
C1333      C1334   1.398       .  A
C1333      C1338   1.409   1_554  A
C1334      C1335   1.393       .  A
C1334      H1339   1.085       .  S
C1335      C1336   1.409       .  A
C1335      C1342   1.438       .  S
C1336      C1337   1.403   1_554  A
C1337      C1338   1.392       .  A
C1337      H1340   1.085       .  S
C1338      C1341   1.445       .  S
C1341      N1343   1.157       .  T
C1342      N1344   1.154       .  T
C1345      C1858   1.411       .  A
C1345      C1350   1.413       .  A
C1346      C1857   1.411   1_545  A
C1346      C1347   1.414       .  A
C1346      H1351   1.084       .  S
C1347      C1348   1.413   1_545  A
C1347      C1354   1.442       .  S
C1348      C1861   1.408       .  A
C1349      C1860   1.408       .  A
C1349      C1350   1.402       .  A
C1349      H1352   1.086       .  S
C1350      C1353   1.444       .  S
C1353      N1355   1.157       .  T
C1354      N1356   1.157       .  T
C1357      C1358   1.421       .  A
C1357      C1874   1.422       .  A
C1358      C1359   1.409       .  A
C1358      H1363   1.075       .  S
C1359      C1872   1.407       .  A
C1359      C1366   1.444       .  S
C1360      C1871   1.407   1_545  A
C1360      C1361   1.405       .  A
C1361      C1362   1.406       .  A
C1361      H1364   1.085       .  S
C1362      C1869   1.422   1_545  A
C1362      C1365   1.444       .  S
C1365      N1367   1.157       .  T
C1366      N1368   1.157       .  T
C1369      C1370   1.404       .  A
C1370      C1371   1.415       .  A
C1370      H1375   1.084       .  S
C1371      C1372   1.424       .  A
C1371      C1378   1.441       .  S
C1373      C1374   1.401       .  A
C1373      H1376   1.084       .  S
C1374      C1377   1.443       .  S
C1377      N1379   1.156       .  T
C1378      N1380   1.157       .  T
C1381      C1386   1.417       .  A
C1382      C1383   1.407       .  A
C1382      H1387   1.084       .  S
C1383      C1390   1.444       .  S
C1384      C1385   1.413       .  A
C1385      C1386   1.414       .  A
C1385      H1388   1.085   1_655  S
C1386      C1389   1.442       .  S
C1389      N1391   1.157       .  T
C1390      N1392   1.157       .  T
C1393      C1394   1.407       .  A
C1393      C1398   1.415       .  A
C1394      C1395   1.412       .  A
C1394      H1399   1.084       .  S
C1395      C1396   1.414       .  A
C1395      C1402   1.442       .  S
C1396      C1397   1.408       .  A
C1397      C1398   1.403       .  A
C1397      H1400   1.086       .  S
C1398      C1401   1.446       .  S
C1401      N1403   1.158       .  T
C1402      N1404   1.157       .  T
C1405      C1406   1.407       .  A
C1405      C1410   1.428       .  A
C1406      C1407   1.418       .  A
C1406      H1411   1.084       .  S
C1407      C1408   1.429       .  A
C1407      C1414   1.444       .  S
C1408      C1409   1.402       .  A
C1409      C1410   1.397       .  A
C1409      H1412   1.076       .  S
C1410      C1413   1.447       .  S
C1413      N1415   1.157       .  T
C1414      N1416   1.157       .  T
C1417      C1418   1.414       .  A
C1417      C1422   1.418       .  A
C1418      C1419   1.407       .  A
C1418      H1423   1.084       .  S
C1419      C1420   1.409       .  A
C1419      C1426   1.444       .  S
C1420      C1421   1.410       .  A
C1421      C1422   1.418       .  A
C1421      H1424   1.084       .  S
C1422      C1425   1.442       .  S
C1425      N1427   1.157       .  T
C1426      N1940   1.157       .  T
N1428      C1938   1.157       .  T
C1429      C1430   1.417       .  A
C1429      C1434   1.415       .  A
C1430      C1431   1.408       .  A
C1430      H1435   1.084       .  S
C1431      C1432   1.409       .  A
C1431      C1438   1.442       .  S
C1432      C1433   1.416       .  A
C1433      C1434   1.411       .  A
C1433      H1436   1.084       .  S
C1434      C1437   1.444       .  S
C1437      N1439   1.158       .  T
C1438      N1440   1.157       .  T
C1441      C1442   1.401       .  A
C1441      C1446   1.409       .  A
C1442      C1443   1.393       .  A
C1442      H1447   1.085       .  S
C1443      C1444   1.407       .  A
C1443      C1450   1.445       .  S
C1444      C1445   1.397       .  A
C1445      C1446   1.391       .  A
C1445      H1448   1.085       .  S
C1446      C1449   1.443       .  S
C1449      N1451   1.157       .  T
C1450      N1452   1.157       .  T
C1453      C1454   1.401       .  A
C1453      C1458   1.408       .  A
C1454      C1455   1.388       .  A
C1454      H1459   1.085       .  S
C1455      C1456   1.406       .  A
C1455      C1462   1.445       .  S
C1456      C1457   1.400       .  A
C1457      C1458   1.391       .  A
C1457      H1460   1.085       .  S
C1458      C1461   1.444       .  S
C1461      N1463   1.157       .  T
C1462      N1464   1.157       .  T
C1465      C1466   1.397       .  A
C1465      C1470   1.406       .  A
C1466      C1467   1.390       .  A
C1466      H1471   1.085       .  S
C1467      C1468   1.407       .  A
C1467      C1474   1.444       .  S
C1468      C1469   1.399       .  A
C1469      C1470   1.391       .  A
C1469      H1472   1.085       .  S
C1470      C1473   1.445       .  S
C1473      N1475   1.157       .  T
C1474      N1476   1.157       .  T
C1477      C1478   1.400       .  A
C1477      C1482   1.408       .  A
C1478      C1479   1.392       .  A
C1478      H1483   1.085       .  S
C1479      C1480   1.409       .  A
C1479      C1486   1.445       .  S
C1480      C1481   1.400       .  A
C1481      C1482   1.392       .  A
C1481      H1484   1.085       .  S
C1482      C1485   1.444       .  S
C1485      N1487   1.157       .  T
C1486      N1488   1.157       .  T
C1489      C1490   1.404       .  A
C1489      C1494   1.430       .  A
C1490      C1491   1.399       .  A
C1490      H1495   1.082       .  S
C1491      C1492   1.424       .  A
C1491      C1498   1.445       .  S
C1492      C1493   1.407       .  A
C1493      C1494   1.419       .  A
C1493      H1496   1.084       .  S
C1494      C1497   1.444       .  S
C1497      N1499   1.158       .  T
C1498      N1500   1.157       .  T
C1501      C1502   1.409       .  A
C1501      C1506   1.414       .  A
C1502      C1503   1.402       .  A
C1502      H1507   1.085       .  S
C1503      C1504   1.412       .  A
C1503      C1510   1.444       .  S
C1504      C1505   1.411       .  A
C1505      C1506   1.414       .  A
C1505      H1508   1.084       .  S
C1506      C1509   1.443       .  S
C1509      N1511   1.157       .  T
C1510      N1512   1.157       .  T
C1513      C1514   1.418       .  A
C1513      C1518   1.418       .  A
C1514      C1515   1.408       .  A
C1514      H1519   1.084       .  S
C1515      C1516   1.408       .  A
C1515      C1522   1.442       .  S
C1516      C1517   1.412       .  A
C1517      C1518   1.414       .  A
C1517      H1520   1.085       .  S
C1518      C1521   1.442       .  S
C1521      N1523   1.157       .  T
C1522      N1524   1.157       .  T
C1525      C1526   1.400       .  A
C1525      C1530   1.430       .  A
C1526      C1527   1.403       .  A
C1526      H1531   1.079       .  S
C1527      C1528   1.419       .  A
C1527      C1534   1.444       .  S
C1528      C1529   1.400       .  A
C1529      C1530   1.408       .  A
C1529      H1532   1.085       .  S
C1530      C1533   1.443       .  S
C1533      N1535   1.157       .  T
C1534      N1536   1.157       .  T
O1537      C1548   1.304       .  A
O1537     Eu1573   2.523       .  S
O1538      C1549   1.306       .  A
O1538     Eu1572   2.544       .  S
O1539      C1550   1.286       .  A
O1539     Eu1545   2.439       .  S
O1540      C1551   1.285       .  A
O1540     Eu1545   2.429       .  S
O1541      C1551   1.281       .  A
O1541     Eu1575   2.414       .  S
O1542      C1550   1.282       .  A
O1542     Eu1574   2.419       .  S
O1543      C1549   1.290       .  A
O1543     Eu1545   2.448       .  S
O1544      C1548   1.287       .  A
O1544     Eu1545   2.432       .  S
Eu1545     O1555   2.357       .  S
Eu1545     O1547   2.348       .  S
Eu1545     O1546   2.335       .  S
Eu1545     O1553   2.342       .  S
O1546     Eu1575   2.338       .  S
O1546     Eu1572   2.362       .  S
O1547     Eu1573   2.382       .  S
O1547     Eu1574   2.339       .  S
C1548      C2040   1.496       .  S
C1549      C1929   1.516       .  S
C1550      C1953   1.453       .  S
C1551      C1965   1.452       .  S
H1552      O1553   0.963       .  S
O1553     Eu1574   2.353       .  S
O1553     Eu1572   2.377       .  S
H1554      O1555   0.965       .  S
O1555     Eu1573   2.376       .  S
O1555     Eu1575   2.338       .  S
O1556      C1579   1.304       .  A
O1556     Eu1572   2.527       .  S
O1557      C1580   1.305       .  A
O1557     Eu1573   2.538       .  S
O1558      C1581   1.289       .  A
O1558     Eu1574   2.439       .  S
O1559      C1582   1.281       .  A
O1559     Eu1575   2.411       .  S
O1560      C1583   1.283       .  A
O1560     Eu1575   2.418       .  S
O1561      C1584   1.288       .  A
O1561     Eu1574   2.437       .  S
O1562      C1585   1.284       .  A
O1562     Eu1576   2.426       .  S
O1563      C1586   1.282       .  A
O1563     Eu1576   2.420       .  S
O1564      C1585   1.283       .  A
O1564     Eu1574   2.424       .  S
O1565      C1586   1.282       .  A
O1565     Eu1575   2.418       .  S
O1566      C1581   1.302       .  A
O1566     Eu1572   2.520       .  S
O1567      C1584   1.303       .  A
O1567     Eu1573   2.524       .  S
O1568      C1583   1.307       .  A
O1568     Eu1573   2.553       .  S
O1569      C1582   1.305       .  A
O1569     Eu1572   2.543       .  S
O1570      C1579   1.289       .  A
O1570     Eu1576   2.440       .  S
O1571      C1580   1.290       .  A
O1571     Eu1576   2.446       .  S
Eu1572     O1590   2.375       .  S
Eu1572     O1578   2.379       .  S
Eu1573     O1577   2.367       .  S
Eu1573     O1588   2.385       .  S
Eu1574     O1588   2.348       .  S
Eu1574     O1578   2.341       .  S
Eu1575     O1577   2.332       .  S
Eu1575     O1590   2.340       .  S
Eu1576     O1577   2.351       .  S
Eu1576     O1588   2.348       .  S
Eu1576     O1590   2.349       .  S
Eu1576     O1578   2.340       .  S
C1579      C1941   1.512       .  S
C1580      C2025   1.520       .  S
C1581      C1908   1.494       .  S
C1582      C1917   1.514       .  S
C1583      C2004   1.513       .  S
C1584      C2013   1.499       .  S
C1585      C1989   1.454       .  S
C1586      C1977   1.444       .  S
H1587      O1588   0.967       .  S
H1589      O1590   0.967       .  S
N1591      C1596   1.345       .  A
N1591      H1623   1.041       .  S
N1592      C1600   1.342       .  A
N1593      C1598   1.346   1_545  A
N1593      H1624   1.041       .  S
N1594      C1602   1.344       .  A
C1595      C1603   1.386       .  A
C1595      C1611   1.401       .  A
C1596      C1612   1.404       .  A
C1596      C1604   1.388       .  A
C1597      C1605   1.387       .  A
C1597      C1614   1.402       .  A
C1598      C1613   1.400       .  A
C1598      C1606   1.387       .  A
C1599      C1611   1.398       .  A
C1599      C1607   1.386       .  A
C1600      C1614   1.397       .  A
C1600      C1608   1.386       .  A
C1601      C1609   1.386   1_655  A
C1601      C1612   1.401       .  A
C1602      C1610   1.387       .  A
C1602      C1613   1.401       .  A
C1603      H1615   1.082       .  S
C1604      H1616   1.082       .  S
C1605      H1617   1.083       .  S
C1606      H1618   1.082       .  S
C1607      H1619   1.082       .  S
C1608      H1620   1.082       .  S
C1609      H1621   1.082   1_455  S
C1610      H1622   1.082       .  S
C1611      C1956   1.463       .  S
C1612      C1992   1.468       .  S
C1613      C1980   1.462       .  S
C1614      C1968   1.463       .  S
O1625      C1636   1.307       .  A
O1626      C1637   1.310       .  A
O1626     Eu1660   2.564       .  S
O1627      C1638   1.286   1_556  A
O1628      C1639   1.284       .  A
O1628     Eu1633   2.430       .  S
O1629      C1639   1.282       .  A
O1629     Eu1663   2.417       .  S
O1630      C1638   1.283       .  A
O1630     Eu1662   2.420   1_564  S
O1631      C1637   1.279       .  A
O1631     Eu1633   2.401   1_554  S
O1632      C1636   1.287       .  A
O1632     Eu1633   2.430       .  S
Eu1633     O1643   2.341       .  S
Eu1633     O1634   2.347   1_556  S
O1634     Eu1663   2.341   1_554  S
O1634     Eu1660   2.373       .  S
O1635     Eu1662   2.346   1_565  S
C1636      C1893   1.519       .  S
C1637      C1785   1.517       .  S
C1638      C1812   1.458       .  S
C1639      C1821   1.448   1_556  S
H1640      O1641   0.965       .  S
O1641     Eu1662   2.343   1_564  S
H1642      O1643   0.965       .  S
O1643     Eu1663   2.343       .  S
O1644      C1667   1.307       .  A
O1645      C1668   1.302       .  A
O1645     Eu1661   2.518       .  S
O1646      C1669   1.285       .  A
O1646     Eu1662   2.419   1_554  S
O1647      C1670   1.287       .  A
O1647     Eu1663   2.433   1_554  S
O1648      C1671   1.286       .  A
O1649      C1672   1.285       .  A
O1650      C1673   1.288       .  A
O1651      C1674   1.287       .  A
O1651     Eu1664   2.438   1_554  S
O1652      C1673   1.283   1_556  A
O1653      C1674   1.282   1_556  A
O1654      C1669   1.306   1_565  A
O1655      C1672   1.303       .  A
O1656      C1671   1.303       .  A
O1656     Eu1661   2.528       .  S
O1657      C1670   1.305       .  A
O1657     Eu1660   2.538       .  S
O1658      C1667   1.287       .  A
O1658     Eu1664   2.439   1_554  S
O1659      C1668   1.290       .  A
O1659     Eu1664   2.453       .  S
Eu1661     O1665   2.383       .  S
Eu1664     O1665   2.353       .  S
Eu1664     O1678   2.349   1_556  S
C1667      C1797   1.514       .  S
C1668      C1881   1.489       .  S
C1669      C1761   1.502       .  S
C1670      C1773   1.500       .  S
C1671      C1860   1.495       .  S
C1672      C1872   1.491       .  S
C1673      C1848   1.463       .  S
C1674      C1836   1.453       .  S
H1675      O1676   0.966       .  S
H1677      O1678   0.965       .  S
N1679      C1684   1.346       .  A
N1679      C1683   1.347       .  A
N1679      H1711   1.041       .  S
N1680      C1687   1.343       .  A
N1680      C1688   1.342       .  A
N1681      C1686   1.347       .  A
N1681      C1685   1.348       .  A
N1681      H1712   1.042       .  S
N1682      C1689   1.341       .  A
N1682      C1690   1.343       .  A
C1683      C1691   1.387   1_554  A
C1683      C1699   1.403       .  A
C1684      C1700   1.402       .  A
C1684      C1692   1.388   1_554  A
C1685      C1693   1.386   1_554  A
C1685      C1702   1.404       .  A
C1686      C1701   1.407       .  A
C1686      C1694   1.388   1_554  A
C1687      C1699   1.396       .  A
C1687      C1695   1.385       .  A
C1688      C1702   1.400       .  A
C1688      C1696   1.387       .  A
C1689      C1697   1.386       .  A
C1689      C1700   1.399       .  A
C1690      C1698   1.386       .  A
C1690      C1701   1.400       .  A
C1691      C1692   1.373       .  A
C1691      H1703   1.082       .  S
C1692      H1704   1.083       .  S
C1693      C1694   1.375       .  A
C1693      H1705   1.082       .  S
C1694      H1706   1.082       .  S
C1695      C1696   1.373       .  A
C1695      H1707   1.082       .  S
C1696      H1708   1.082       .  S
C1697      C1698   1.375       .  A
C1697      H1709   1.082       .  S
C1698      H1710   1.082       .  S
C1699      C1833   1.465       .  S
C1700      C1824   1.459       .  S
C1701      C1809   1.471       .  S
C1702      C1845   1.470       .  S
C1713      C1714   1.538       .  S
C1713      C1717   1.522       .  S
C1713      C2001   1.555       .  S
C1714      H1721   1.083       .  S
C1715      C1716   1.560   1_455  S
C1715      C1800   1.513   1_455  S
C1716      C1720   1.534       .  S
C1716      C1718   1.554   1_655  S
C1716      H1722   1.110       .  S
C1717      H1723   1.087       .  S
C1718      C1788   1.497   1_455  S
C1719      H1724   1.084       .  S
C1719      C1720   1.378   1_455  D
C1720      C2016   1.504       .  S
C1725      C1726   1.541   1_545  S
C1725      C1731   1.551   1_545  S
C1725      C1764   1.556       .  S
C1726      H1733   1.083       .  S
C1726      C1727   1.368       .  D
C1727      C1728   1.560   1_565  S
C1727      C2028   1.510       .  S
C1728      C1732   1.539       .  S
C1728      H1734   1.109       .  S
C1729      H1735   1.084       .  S
C1729      C1730   1.365       .  D
C1730      C2037   1.513       .  S
C1731      H1736   1.085       .  S
C1731      C1732   1.376   1_565  D
C1732      C1776   1.502   1_545  S
C1737      C1738   1.529       .  S
C1737      C1741   1.532       .  S
C1737      C1920   1.557       .  S
C1738      H1745   1.086       .  S
C1739      C1740   1.562   1_455  S
C1739      C1896   1.504   1_455  S
C1740      C1744   1.542       .  S
C1740      C1742   1.558   1_655  S
C1740      H1746   1.109       .  S
C1741      H1747   1.086       .  S
C1742      C1884   1.515   1_455  S
C1743      H1748   1.080       .  S
C1743      C1744   1.372   1_455  D
C1744      C1905   1.501       .  S
C1749      C1755   1.550       .  S
C1749      C1753   1.544       .  S
C1749      C1869   1.559       .  S
C1750      H1757   1.087       .  S
C1750      C1751   1.361       .  D
C1751      C1932   1.504       .  S
C1752      C1756   1.541       .  S
C1752      C1754   1.560       .  S
C1752      H1758   1.109       .  S
C1753      H1759   1.078       .  S
C1753      C1754   1.368       .  D
C1754      C1944   1.514       .  S
C1755      H1760   1.086       .  S
C1755      C1756   1.377       .  D
C1756      C1857   1.503       .  S
C1761      C1766   1.409   1_545  A
C1762      C1763   1.405       .  A
C1762      H1767   1.085       .  S
C1763      C1770   1.446       .  S
C1764      C1765   1.419   1_545  A
C1765      C1766   1.413       .  A
C1765      H1768   1.079       .  S
C1766      C1769   1.442       .  S
C1769      N1771   1.157       .  T
C1770      N1772   1.158       .  T
C1773      C1778   1.419       .  A
C1774      C1775   1.414       .  A
C1774      H1779   1.085       .  S
C1775      C1782   1.442       .  S
C1776      C1777   1.400       .  A
C1777      C1778   1.400       .  A
C1777      H1780   1.085       .  S
C1778      C1781   1.440       .  S
C1781      N1783   1.155       .  T
C1782      N1784   1.157       .  T
C1785      C1786   1.406       .  A
C1786      C1787   1.411       .  A
C1786      H1791   1.084       .  S
C1787      C1788   1.418       .  A
C1787      C1794   1.444   1_655  S
C1789      C1790   1.404       .  A
C1789      H1792   1.086       .  S
C1790      C1793   1.446       .  S
C1793      N1795   1.158       .  T
C1794      N1796   1.157       .  T
C1797      C1802   1.429       .  A
C1798      C1799   1.412       .  A
C1798      H1803   1.084       .  S
C1799      C1806   1.444       .  S
C1800      C1801   1.400       .  A
C1801      C1802   1.407       .  A
C1801      H1804   1.085       .  S
C1802      C1805   1.444       .  S
C1805      N1807   1.157       .  T
C1806      N1808   1.157       .  T
C1809      C1810   1.401   1_554  A
C1809      C1814   1.407       .  A
C1810      C1811   1.394       .  A
C1810      H1815   1.085       .  S
C1811      C1812   1.410   1_556  A
C1811      C1818   1.445       .  S
C1812      C1813   1.402       .  A
C1813      C1814   1.392       .  A
C1813      H1816   1.085       .  S
C1814      C1817   1.445       .  S
C1817      N1819   1.157       .  T
C1818      N1820   1.157       .  T
C1821      C1822   1.399   1_554  A
C1821      C1826   1.409       .  A
C1822      C1823   1.392       .  A
C1822      H1827   1.085       .  S
C1823      C1824   1.408   1_556  A
C1823      C1830   1.445       .  S
C1824      C1825   1.394       .  A
C1825      C1826   1.388       .  A
C1825      H1828   1.085       .  S
C1826      C1829   1.442       .  S
C1829      N1831   1.156       .  T
C1830      N1832   1.157       .  T
C1833      C1834   1.401   1_554  A
C1833      C1838   1.404       .  A
C1834      C1835   1.393       .  A
C1834      H1839   1.085       .  S
C1835      C1836   1.408   1_556  A
C1835      C1842   1.445       .  S
C1836      C1837   1.401       .  A
C1837      C1838   1.390       .  A
C1837      H1840   1.085       .  S
C1838      C1841   1.445       .  S
C1841      N1843   1.157       .  T
C1842      N1844   1.157       .  T
C1845      C1846   1.398       .  A
C1845      C1850   1.408   1_554  A
C1846      C1847   1.393       .  A
C1846      H1851   1.085       .  S
C1847      C1848   1.409       .  A
C1847      C1854   1.438       .  S
C1848      C1849   1.402   1_554  A
C1849      C1850   1.392       .  A
C1849      H1852   1.085       .  S
C1850      C1853   1.445       .  S
C1853      N1855   1.157       .  T
C1854      N1856   1.155       .  T
C1857      C1862   1.413       .  A
C1858      C1859   1.414       .  A
C1858      H1863   1.084       .  S
C1859      C1860   1.413       .  A
C1859      C1866   1.442       .  S
C1861      C1862   1.402       .  A
C1861      H1864   1.086       .  S
C1862      C1865   1.444       .  S
C1865      N1867   1.157       .  T
C1866      N1868   1.157       .  T
C1869      C1870   1.421       .  A
C1870      C1871   1.409       .  A
C1870      H1875   1.075       .  S
C1871      C1878   1.444       .  S
C1872      C1873   1.405       .  A
C1873      C1874   1.406       .  A
C1873      H1876   1.085       .  S
C1874      C1877   1.444       .  S
C1877      N1879   1.157       .  T
C1878      N1880   1.157       .  T
C1881      C1882   1.404       .  A
C1882      C1883   1.415       .  A
C1882      H1887   1.084       .  S
C1883      C1884   1.424       .  A
C1883      C1890   1.441       .  S
C1885      C1886   1.401       .  A
C1885      H1888   1.084       .  S
C1886      C1889   1.443       .  S
C1889      N1891   1.156       .  T
C1890      N1892   1.157       .  T
C1893      C1898   1.416       .  A
C1894      C1895   1.407       .  A
C1894      H1899   1.084       .  S
C1895      C1902   1.444       .  S
C1896      C1897   1.413       .  A
C1897      C1898   1.414       .  A
C1897      H1900   1.085   1_655  S
C1898      C1901   1.442       .  S
C1901      N1903   1.157       .  T
C1902      N1904   1.157       .  T
C1905      C1906   1.407       .  A
C1905      C1910   1.415       .  A
C1906      C1907   1.412       .  A
C1906      H1911   1.084       .  S
C1907      C1908   1.414       .  A
C1907      C1914   1.442       .  S
C1908      C1909   1.407       .  A
C1909      C1910   1.402       .  A
C1909      H1912   1.086       .  S
C1910      C1913   1.446       .  S
C1913      N1915   1.158       .  T
C1914      N1916   1.157       .  T
C1917      C1918   1.407       .  A
C1917      C1922   1.428       .  A
C1918      C1919   1.418       .  A
C1918      H1923   1.084       .  S
C1919      C1920   1.429       .  A
C1919      C1926   1.444       .  S
C1920      C1921   1.402       .  A
C1921      C1922   1.397       .  A
C1921      H1924   1.076       .  S
C1922      C1925   1.447       .  S
C1925      N1927   1.157       .  T
C1926      N1928   1.157       .  T
C1929      C1930   1.415       .  A
C1929      C1934   1.418       .  A
C1930      C1931   1.407       .  A
C1930      H1935   1.084       .  S
C1931      C1932   1.409       .  A
C1931      C1938   1.444       .  S
C1932      C1933   1.410       .  A
C1933      C1934   1.418       .  A
C1933      H1936   1.084       .  S
C1934      C1937   1.442       .  S
C1937      N1939   1.157       .  T
C1941      C1942   1.417       .  A
C1941      C1946   1.415       .  A
C1942      C1943   1.408       .  A
C1942      H1947   1.084       .  S
C1943      C1944   1.409       .  A
C1943      C1950   1.442       .  S
C1944      C1945   1.416       .  A
C1945      C1946   1.411       .  A
C1945      H1948   1.084       .  S
C1946      C1949   1.444       .  S
C1949      N1951   1.158       .  T
C1950      N1952   1.157       .  T
C1953      C1954   1.401       .  A
C1953      C1958   1.409       .  A
C1954      C1955   1.393       .  A
C1954      H1959   1.085       .  S
C1955      C1956   1.407       .  A
C1955      C1962   1.445       .  S
C1956      C1957   1.397       .  A
C1957      C1958   1.391       .  A
C1957      H1960   1.085       .  S
C1958      C1961   1.443       .  S
C1961      N1963   1.157       .  T
C1962      N1964   1.157       .  T
C1965      C1966   1.401       .  A
C1965      C1970   1.408       .  A
C1966      C1967   1.388       .  A
C1966      H1971   1.085       .  S
C1967      C1968   1.406       .  A
C1967      C1974   1.445       .  S
C1968      C1969   1.400       .  A
C1969      C1970   1.391       .  A
C1969      H1972   1.085       .  S
C1970      C1973   1.444       .  S
C1973      N1975   1.157       .  T
C1974      N1976   1.157       .  T
C1977      C1978   1.398       .  A
C1977      C1982   1.406       .  A
C1978      C1979   1.390       .  A
C1978      H1983   1.085       .  S
C1979      C1980   1.407       .  A
C1979      C1986   1.444       .  S
C1980      C1981   1.399       .  A
C1981      C1982   1.391       .  A
C1981      H1984   1.085       .  S
C1982      C1985   1.445       .  S
C1985      N1987   1.157       .  T
C1986      N1988   1.157       .  T
C1989      C1990   1.400       .  A
C1989      C1994   1.407       .  A
C1990      C1991   1.392       .  A
C1990      H1995   1.085       .  S
C1991      C1992   1.409       .  A
C1991      C1998   1.445       .  S
C1992      C1993   1.400       .  A
C1993      C1994   1.392       .  A
C1993      H1996   1.085       .  S
C1994      C1997   1.444       .  S
C1997      N1999   1.157       .  T
C1998      N2000   1.157       .  T
C2001      C2002   1.404       .  A
C2001      C2006   1.430       .  A
C2002      C2003   1.399       .  A
C2002      H2007   1.082       .  S
C2003      C2004   1.424       .  A
C2003      C2010   1.445       .  S
C2004      C2005   1.407       .  A
C2005      C2006   1.419       .  A
C2005      H2008   1.084       .  S
C2006      C2009   1.444       .  S
C2009      N2011   1.158       .  T
C2010      N2012   1.157       .  T
C2013      C2014   1.409       .  A
C2013      C2018   1.414       .  A
C2014      C2015   1.402       .  A
C2014      H2019   1.085       .  S
C2015      C2016   1.412       .  A
C2015      C2022   1.444       .  S
C2016      C2017   1.412       .  A
C2017      C2018   1.415       .  A
C2017      H2020   1.084       .  S
C2018      C2021   1.443       .  S
C2021      N2023   1.157       .  T
C2022      N2024   1.157       .  T
C2025      C2026   1.418       .  A
C2025      C2030   1.418       .  A
C2026      C2027   1.408       .  A
C2026      H2031   1.084       .  S
C2027      C2028   1.408       .  A
C2027      C2034   1.442       .  S
C2028      C2029   1.413       .  A
C2029      C2030   1.414       .  A
C2029      H2032   1.085       .  S
C2030      C2033   1.442       .  S
C2033      N2035   1.157       .  T
C2034      N2036   1.157       .  T
C2037      C2038   1.400       .  A
C2037      C2042   1.429       .  A
C2038      C2039   1.403       .  A
C2038      H2043   1.079       .  S
C2039      C2040   1.419       .  A
C2039      C2046   1.444       .  S
C2040      C2041   1.399       .  A
C2041      C2042   1.408       .  A
C2041      H2044   1.085       .  S
C2042      C2045   1.443       .  S
C2045      N2047   1.157       .  T
C2046      N2048   1.157       .  T
