geometry optimzed in LAMMPS
_audit_creation_date              2020-11-30 
_audit_creation_method            'lammps2cif' 
_symmetry_space_group_name_H-M    'P1' 
_symmetry_Int_Tables_number       1 
_symmetry_cell_setting            triclinic 
loop_ 
_symmetry_equiv_pos_as_xyz 
  x,y,z 
_cell_length_a                    25.65671248 
_cell_length_b                    25.042311983170627 
_cell_length_c                    39.306575875741615 
_cell_angle_alpha                 90.28407307845356 
_cell_angle_beta                  90.28460339936046 
_cell_angle_gamma                 89.97674223406717 
loop_ 
_atom_site_label 
_atom_site_type_symbol 
_atom_site_fract_x 
_atom_site_fract_y 
_atom_site_fract_z 
_atom_site_charge 
O1          O  0.52725229  0.39842268  0.40260794    -0.86100
O2          O  0.53603623  0.39891499  0.59685784    -0.86300
O3          O  0.62290904  0.34370440  0.49326127    -0.87900
O4          O  0.45569366  0.33057211  0.50130633    -0.86700
O5          O  0.38863197  0.39102654  0.50476919    -0.86300
O6          O  0.68231112  0.41187935  0.49792774    -0.87700
O7          O  0.54555472  0.33675043  0.55404150    -0.86100
O8          O  0.53486057  0.33498011  0.44435088    -0.85700
Zr9        Zr  0.53634221  0.38095152  0.49949038     2.84300
O10         O  0.48118175  0.42971551  0.53563727    -1.07700
O11         O  0.58377077  0.43839884  0.46496625    -1.08400
C12         C  0.53045105  0.34939261  0.41289431     1.07000
C13         C  0.54280766  0.35057531  0.58564219     1.06900
C14         C  0.66971689  0.36221946  0.49414548     1.09900
C15         C  0.40711919  0.34314764  0.50352838     1.07700
H16         H  0.60933166  0.41690378  0.54863179     0.33300
O17         O  0.58538044  0.43744814  0.53512683    -1.28600
H18         H  0.45750654  0.40619109  0.45233359     0.32900
O19         O  0.47861662  0.42999360  0.46578303    -1.30300
O20         O  0.52251754  0.57728626  0.59713031    -0.86100
O21         O  0.51541764  0.57492387  0.40323266    -0.87600
O22         O  0.67619240  0.50117603  0.55569028    -0.86200
O23         O  0.38447164  0.48230553  0.55754783    -0.86200
O24         O  0.37863004  0.47569855  0.44790262    -0.85900
O25         O  0.67258992  0.50249607  0.44532505    -0.85700
O26         O  0.60377811  0.64464669  0.50112090    -0.86100
O27         O  0.43456722  0.63219980  0.49626938    -0.85600
O28         O  0.67082124  0.58420331  0.50411133    -0.86600
O29         O  0.37608227  0.56306401  0.49929377    -0.85800
O30         O  0.61506119  0.49497106  0.59802525    -0.86200
O31         O  0.61173405  0.49346715  0.40244199    -0.85900
O32         O  0.43780233  0.48281208  0.40449573    -0.85600
O33         O  0.44615038  0.48328695  0.60001272    -0.86000
O34         O  0.51949741  0.64004932  0.55465055    -0.86300
O35         O  0.51986827  0.63926040  0.44506038    -0.87600
Zr36       Zr  0.52980097  0.48793079  0.57043867     2.83100
Zr37       Zr  0.52601347  0.48701163  0.43024984     2.83500
Zr38       Zr  0.63254870  0.49516386  0.50053190     2.84100
Zr39       Zr  0.42511137  0.48023274  0.50174285     2.83400
Zr40       Zr  0.52205576  0.59467923  0.49999140     2.84200
O41         O  0.47207642  0.53700159  0.46623822    -1.08200
O42         O  0.57754982  0.54530441  0.53526652    -1.07700
C43         C  0.51977251  0.62607337  0.58621161     1.07000
C44         C  0.51554106  0.62409010  0.41372471     1.09600
C45         C  0.66228169  0.50005010  0.58723589     1.07100
C46         C  0.39851444  0.48322212  0.58916058     1.07500
C47         C  0.39068420  0.47865499  0.41612348     1.07100
C48         C  0.65878344  0.50075734  0.41377632     1.06600
C49         C  0.65252897  0.63224419  0.50342738     1.07100
C50         C  0.38790096  0.61294413  0.49681832     1.06600
H51         H  0.59641183  0.56832518  0.45123928     0.33300
O52         O  0.57657658  0.54431335  0.46508130    -1.29300
H53         H  0.45085460  0.55979025  0.54933356     0.33300
O54         O  0.47391057  0.53852711  0.53562868    -1.30700
N55         N  0.03261566  0.07053244  0.50667447    -0.36200
N56         N  0.11037243  0.98739119  0.50039853    -0.56800
N57         N  0.02879101  0.90775952  0.50256913    -0.36200
N58         N  0.95060376  0.99163363  0.50419115    -0.56800
C59         C  0.07575747  0.09787113  0.49784343     0.27400
C60         C  0.99120671  0.10054823  0.49744527     0.27400
C61         C  0.06923997  0.87892257  0.49016119     0.27400
C62         C  0.98461533  0.88036433  0.49548203     0.27400
C63         C  0.14014778  0.02842851  0.51131866     0.36000
C64         C  0.13849780  0.94274247  0.50575131     0.36000
C65         C  0.92245309  0.03579562  0.51157422     0.36000
C66         C  0.92052496  0.94941716  0.51240152     0.36000
C67         C  0.06170113  0.14537445  0.48229718    -0.21500
C68         C  0.00812784  0.14717654  0.48218514    -0.21500
C69         C  0.05035998  0.83293820  0.47463147    -0.21500
C70         C  0.99696244  0.83360573  0.47830201    -0.21500
C71         C  0.18696908  0.00975934  0.52440535    -0.22600
C72         C  0.18604982  0.95527583  0.52065406    -0.22600
C73         C  0.87429191  0.02178049  0.52444660    -0.22600
C74         C  0.87321616  0.96696925  0.52528126    -0.22600
C75         C  0.12702682  0.08231605  0.50607575    -0.17900
C76         C  0.93895777  0.08832597  0.50485705    -0.17900
C77         C  0.93389312  0.89562838  0.50564456    -0.17900
C78         C  0.12260879  0.89158524  0.49503027    -0.17900
H79         H  0.08733383  0.17572325  0.47228307     0.15000
H80         H  0.98434722  0.17926468  0.47222853     0.15000
H81         H  0.07264675  0.80180201  0.46224590     0.15000
H82         H  0.97022846  0.80327581  0.46918181     0.15000
H83         H  0.21872834  0.03284805  0.53513264     0.13300
H84         H  0.21675004  0.92808277  0.52817364     0.13300
H85         H  0.84323473  0.04823823  0.53238531     0.13300
H86         H  0.84096332  0.94296889  0.53404083     0.13300
H87         H  0.03174806  0.03663845  0.52193952     0.26500
H88         H  0.03137776  0.94113390  0.51839578     0.26500
O89         O  0.97095251  0.91459963  0.90041572    -0.86100
O90         O  0.97277937  0.91441751  0.09500414    -0.86300
O91         O  0.05051047  0.85220312  0.99680729    -0.87900
O92         O  0.87809730  0.85469355  0.00002493    -0.86700
O93         O  0.81698288  0.92151614  0.99770181    -0.86300
O94         O  0.11235973  0.91817033  0.99337983    -0.87700
O95         O  0.96799413  0.85034386  0.05295495    -0.86100
O96         O  0.96579170  0.85104263  0.94234948    -0.85700
Zr97       Zr  0.96480601  0.89571800  0.99777302     2.84300
O98         O  0.91417582  0.95085959  0.03272444    -1.07700
O99         O  0.01684920  0.94943311  0.96288336    -1.08400
C100        C  0.96976560  0.86556080  0.91091649     1.07000
C101        C  0.97237200  0.86522886  0.08445716     1.06900
C102        C  0.09802164  0.86894391  0.99422393     1.09900
C103        C  0.83059312  0.87207902  0.99927640     1.07700
H104        H  0.04088323  0.92667873  0.04581835     0.33300
O105        O  0.01806928  0.94919079  0.03246718    -1.28600
H106        H  0.89144354  0.92839281  0.94841917     0.32900
O107        O  0.91387709  0.95050896  0.96236243    -1.30300
O108        O  0.97199311  0.09242773  0.09606097    -0.86100
O109        O  0.96922253  0.09423259  0.90181420    -0.87600
O110        O  0.11518794  0.00092117  0.05123629    -0.86200
O111        O  0.82108194  0.00720089  0.05285110    -0.86200
O112        O  0.82226945  0.00794637  0.94171317    -0.85900
O113        O  0.11178869  0.00272902  0.94354147    -0.85700
O114        O  0.05121444  0.15535506  0.99892119    -0.86100
O115        O  0.88114237  0.15591895  0.00156295    -0.85600
O116        O  0.11255971  0.08880059  0.99636508    -0.86600
O117        O  0.81823930  0.09112866  0.99762392    -0.85800
O118        O  0.05582842  0.00130620  0.09470354    -0.86200
O119        O  0.05376681  0.00244432  0.89911762    -0.85900
O120        O  0.88102150  0.00331158  0.89795689    -0.85600
O121        O  0.88141281  0.00173471  0.09616008    -0.86000
O122        O  0.96868954  0.15630696  0.05426059    -0.86300
O123        O  0.96476095  0.15781217  0.94423075    -0.87600
Zr124      Zr  0.96775351  0.00340855  0.06847219     2.83100
Zr125      Zr  0.96665697  0.00399095  0.92700475     2.83500
Zr126      Zr  0.06850367  0.00346131  0.99767528     2.84100
Zr127      Zr  0.86335735  0.00552823  0.99755172     2.83400
Zr128      Zr  0.96618821  0.11196063  0.99880040     2.84200
O129        O  0.91483479  0.05874003  0.96258954    -1.08200
O130        O  0.01888393  0.05789495  0.03335124    -1.07700
C131        C  0.97150803  0.14164053  0.08571137     1.07000
C132        C  0.96781566  0.14328416  0.91270653     1.09600
C133        C  0.10309765  0.00009807  0.08301412     1.07100
C134        C  0.83405097  0.00524905  0.08462665     1.07500
C135        C  0.83404861  0.00645794  0.90982317     1.07100
C136        C  0.10079967  0.00201461  0.91159107     1.06600
C137        C  0.09858132  0.13817299  0.99705334     1.07100
C138        C  0.83323170  0.14015923  0.00022067     1.06600
H139        H  0.04001385  0.08035632  0.94940180     0.33300
O140        O  0.01766985  0.05815303  0.96309258    -1.29300
H141        H  0.89343664  0.08026011  0.04778145     0.33300
O142        O  0.91516618  0.05794339  0.03358317    -1.30700
N143        N  0.45940429  0.42265892  0.99236120    -0.36200
N144        N  0.54352518  0.49889234  0.00605160    -0.56800
N145        N  0.46930021  0.58512057  0.00282659    -0.36200
N146        N  0.38627841  0.50878122  0.99189293    -0.56800
C147        C  0.49819484  0.39148037  0.00434930     0.27400
C148        C  0.41412661  0.39681730  0.99820636     0.27400
C149        C  0.51149976  0.60935939  0.01665818     0.27400
C150        C  0.42694634  0.61406784  0.01165331     0.27400
C151        C  0.56982696  0.45495523  0.99589426     0.36000
C152        C  0.57544987  0.54085371  0.00052263     0.36000
C153        C  0.35544552  0.46908227  0.98024521     0.36000
C154        C  0.36046515  0.55466941  0.98609528     0.36000
C155        C  0.47760785  0.34544816  0.01830307    -0.21500
C156        C  0.42430906  0.34894906  0.01462626    -0.21500
C157        C  0.49576030  0.65407170  0.03488638    -0.21500
C158        C  0.44221533  0.65709778  0.03165395    -0.21500
C159        C  0.61829922  0.46890898  0.98345411    -0.22600
C160        C  0.62170442  0.52347276  0.98608794    -0.22600
C161        C  0.31042280  0.48991475  0.96585900    -0.22600
C162        C  0.31340717  0.54436092  0.96985400    -0.22600
C163        C  0.55155014  0.40239674  0.00022429    -0.17900
C164        C  0.36452699  0.41490924  0.98755126    -0.17900
C165        C  0.37576317  0.60419740  0.99984436    -0.17900
C166        C  0.56364116  0.59381766  0.01038720    -0.17900
H167        H  0.49879218  0.31278432  0.02984586     0.15000
H168        H  0.39642940  0.31950957  0.02306529     0.15000
H169        H  0.52029746  0.68191972  0.04870929     0.15000
H170        H  0.41745724  0.68781580  0.04236345     0.15000
H171        H  0.64792505  0.44260212  0.97330011     0.13300
H172        H  0.65434199  0.54734578  0.97785642     0.13300
H173        H  0.27789329  0.46812748  0.95499935     0.13300
H174        H  0.28355541  0.57287360  0.96284495     0.13300
H175        H  0.46424508  0.45674842  0.97758279     0.26500
H176        H  0.47014411  0.55433471  0.98490314     0.26500
C177        C  0.06759884  0.50299536  0.27951714     0.86900
C178        C  0.06333890  0.45519180  0.25506101    -0.53400
C179        C  0.02108473  0.45643073  0.23371071     0.09800
C180        C  0.98683876  0.50665616  0.23869243     0.20700
C181        C  0.06638595  0.55274594  0.25658546    -0.54100
C182        C  0.02418248  0.55503744  0.23502778     0.09900
C183        C  0.01489556  0.50451133  0.29791676    -0.53600
C184        C  0.97261617  0.50646247  0.27676979     0.10500
H185        H  0.09143374  0.42275502  0.25503248     0.15000
H186        H  0.95214775  0.50801166  0.22174149     0.00700
H187        H  0.09644477  0.58321873  0.25737473     0.15300
H188        H  0.01079478  0.50415170  0.32536925     0.15100
C189        C  0.42603293  0.98700224  0.22095232     0.86900
C190        C  0.42866913  0.93767872  0.24388708    -0.53400
C191        C  0.47062396  0.93652176  0.26558748     0.09800
C192        C  0.50642200  0.98609380  0.26221293     0.20700
C193        C  0.42827139  0.03514736  0.24545267    -0.54100
C194        C  0.47039186  0.03502531  0.26707341     0.09900
C195        C  0.47907806  0.98822004  0.20293132    -0.53600
C196        C  0.52130128  0.98840256  0.22429648     0.10500
H197        H  0.39927136  0.90658473  0.24287471     0.15000
H198        H  0.54085872  0.98609246  0.27939468     0.00700
H199        H  0.39952794  0.06697948  0.24518865     0.15300
H200        H  0.48330541  0.99017085  0.17553763     0.15100
C201        C  0.07651035  0.50060111  0.72317025     0.86900
C202        C  0.07359686  0.54899632  0.74722192    -0.53400
C203        C  0.02910782  0.55106669  0.76625710     0.09800
C204        C  0.99144999  0.50405919  0.75957079     0.20700
C205        C  0.06888396  0.45164792  0.74597211    -0.54100
C206        C  0.02448497  0.45315035  0.76526763     0.09900
C207        C  0.02602612  0.50350231  0.70216585    -0.53600
C208        C  0.98162939  0.50612455  0.72086386     0.10500
H209        H  0.10373056  0.57938570  0.74862674     0.15000
H210        H  0.95512232  0.50595834  0.77475815     0.00700
H211        H  0.09666638  0.41899770  0.74692843     0.15300
H212        H  0.02487792  0.50409270  0.67459157     0.15100
C213        C  0.41816636  0.99250825  0.76930090     0.86900
C214        C  0.42398100  0.04213296  0.74721420    -0.53400
C215        C  0.46904029  0.04436736  0.72884701     0.09800
C216        C  0.50422432  0.99474548  0.73366110     0.20700
C217        C  0.42427613  0.94522871  0.74487358    -0.54100
C218        C  0.46920313  0.94578647  0.72633825     0.09900
C219        C  0.46866798  0.99163497  0.79099430    -0.53600
C220        C  0.51385528  0.99277747  0.77236775     0.10500
H221        H  0.39519372  0.07392562  0.74727065     0.15000
H222        H  0.54066217  0.99557008  0.71858934     0.00700
H223        H  0.39573259  0.91332389  0.74292001     0.15300
H224        H  0.46925096  0.98986522  0.81848455     0.15100
C225        C  0.20861304  0.99434360  0.15386630     0.16300
C226        C  0.23768730  0.99446161  0.18433416    -0.32700
C227        C  0.29230583  0.98998275  0.18205753     0.20700
C228        C  0.31672697  0.98525455  0.15084317     0.02900
C229        C  0.28778050  0.98478191  0.12046505    -0.22400
C230        C  0.23338922  0.98971227  0.12276357     0.12100
S231        S  0.14202411  0.00028346  0.15081944    -0.06100
C232        C  0.14775666  0.99699191  0.10712786    -0.09600
C233        C  0.19891302  0.99119487  0.09603946    -0.26200
S234        S  0.38307716  0.98143198  0.15332243    -0.03400
C235        C  0.37870577  0.98687001  0.19714739    -0.16800
C236        C  0.32754164  0.99045829  0.20865723    -0.14800
H237        H  0.21862695  0.99839602  0.20872628     0.20600
H238        H  0.30689025  0.98131779  0.09604297     0.16600
H239        H  0.21047594  0.98834392  0.06962195     0.19100
H240        H  0.31681614  0.99398075  0.23517580     0.12500
C241        C  0.66452036  0.98747069  0.19309517     0.16300
C242        C  0.71659668  0.97455845  0.18480011    -0.32700
C243        C  0.73718831  0.99554776  0.15436203     0.20700
C244        C  0.70719189  0.02838085  0.13375877     0.02900
C245        C  0.65627280  0.04234719  0.14249475    -0.22400
C246        C  0.63559832  0.02073992  0.17221146     0.12100
S247        S  0.62933946  0.96217224  0.22654940    -0.06100
C248        C  0.57517493  0.99549913  0.21115707    -0.09600
C249        C  0.58512078  0.02605108  0.18261856    -0.26200
S250        S  0.73597032  0.04662369  0.09677939    -0.03400
C251        C  0.78998243  0.01027352  0.10862253    -0.16800
C252        C  0.78557426  0.98548229  0.14017956    -0.14800
H253        H  0.73925354  0.94782610  0.20059890     0.20600
H254        H  0.63285046  0.06726167  0.12594504     0.16600
H255        H  0.55615263  0.04941940  0.16916846     0.19100
H256        H  0.81502060  0.95993365  0.15135068     0.12500
C257        C  0.00655206  0.76622668  0.15682616     0.16300
C258        C  0.02684296  0.74007812  0.18571157    -0.32700
C259        C  0.01699894  0.68494415  0.18913822     0.20700
C260        C  0.98776403  0.65748171  0.16504647     0.02900
C261        C  0.96845076  0.68334283  0.13594590    -0.22400
C262        C  0.97874369  0.73812778  0.13230203     0.12100
S263        S  0.01337764  0.83287475  0.14791613    -0.06100
C264        C  0.97958559  0.82256657  0.11029413    -0.09600
C265        C  0.96373475  0.76994678  0.10546935    -0.26200
S266        S  0.97793914  0.59159279  0.17433808    -0.03400
C267        C  0.01454827  0.60003412  0.21086711    -0.16800
C268        C  0.03300810  0.65208290  0.21533585    -0.14800
H269        H  0.04916932  0.76177738  0.20470123     0.20600
H270        H  0.94613253  0.66164184  0.11695842     0.16600
H271        H  0.94247574  0.75562115  0.08337294     0.19100
H272        H  0.05603902  0.66550121  0.23688720     0.12500
C273        C  0.99701630  0.24327718  0.15849376     0.16300
C274        C  0.01432105  0.27020940  0.18789190    -0.32700
C275        C  0.00731707  0.32587939  0.18956094     0.20700
C276        C  0.98330836  0.35362705  0.16341985     0.02900
C277        C  0.96662306  0.32677801  0.13374956    -0.22400
C278        C  0.97443224  0.27111375  0.13184594     0.12100
S279        S  0.00260371  0.17587510  0.15136334    -0.06100
C280        C  0.97569153  0.18516151  0.11151085    -0.09600
C281        C  0.96244263  0.23808976  0.10479946    -0.26200
S282        S  0.97724725  0.42094309  0.17112001    -0.03400
C283        C  0.00878287  0.41186394  0.20958015    -0.16800
C284        C  0.02230751  0.35896704  0.21583376    -0.14800
H285        H  0.03279546  0.24872022  0.20852643     0.20600
H286        H  0.94860801  0.34834964  0.11297908     0.16600
H287        H  0.94556218  0.25185251  0.08110347     0.19100
H288        H  0.04169135  0.34515352  0.23867938     0.12500
C289        C  0.21760220  0.78070892  0.98024189     0.16300
C290        C  0.26456988  0.75799328  0.96933137    -0.32700
C291        C  0.28393527  0.71433807  0.98760766     0.20700
C292        C  0.25770010  0.69410036  0.01551516     0.02900
C293        C  0.21031532  0.71634496  0.02612750    -0.22400
C294        C  0.19078736  0.75986710  0.00773040     0.12100
S295        S  0.18912030  0.83548166  0.96249069    -0.06100
C296        C  0.13989632  0.82937154  0.99182296    -0.09600
C297        C  0.14562192  0.78731835  0.01424751    -0.26200
S298        S  0.28732845  0.64053111  0.03402378    -0.03400
C299        C  0.33534173  0.64555248  0.00378776    -0.16800
C300        C  0.32862569  0.68647818  0.98070480    -0.14800
H301        H  0.28528276  0.77387872  0.94768146     0.20600
H302        H  0.18959223  0.70043202  0.04776286     0.16600
H303        H  0.11917053  0.77855529  0.03486932     0.19100
H304        H  0.35416336  0.69419169  0.95943404     0.12500
C305        C  0.70742229  0.78563499  0.99689524     0.16300
C306        C  0.65706767  0.76514098  0.99243615    -0.32700
C307        C  0.64781530  0.71276318  0.00319265     0.20700
C308        C  0.68668780  0.68238367  0.01821523     0.02900
C309        C  0.73737932  0.70252643  0.02211178    -0.22400
C310        C  0.74684144  0.75470841  0.01091284     0.12100
S311        S  0.72601232  0.84865763  0.98624264    -0.06100
C312        C  0.78796359  0.83290736  0.00009863    -0.09600
C313        C  0.79341845  0.78148208  0.01249366    -0.26200
S314        S  0.66708450  0.62017488  0.03013693    -0.03400
C315        C  0.60633762  0.63411944  0.01306621    -0.16800
C316        C  0.60185579  0.68535218  0.00006711    -0.14800
H317        H  0.62643963  0.78897308  0.98104768     0.20600
H318        H  0.76806848  0.67858845  0.03333471     0.16600
H319        H  0.82923862  0.76495844  0.02265278     0.19100
H320        H  0.56715613  0.70121103  0.98800005     0.12500
C321        C  0.64099769  0.28043787  0.98878882     0.16300
C322        C  0.66579653  0.23336241  0.97816181    -0.32700
C323        C  0.71507578  0.22210879  0.99205361     0.20700
C324        C  0.73872319  0.25636467  0.01528559     0.02900
C325        C  0.71369185  0.30304854  0.02616120    -0.22400
C326        C  0.66445958  0.31416817  0.01238858     0.12100
S327        S  0.58196026  0.30233835  0.97422359    -0.06100
C328        C  0.58926356  0.35760850  0.00014016    -0.09600
C329        C  0.63477910  0.35822913  0.01921799    -0.26200
S330        S  0.79926965  0.23669300  0.02830708    -0.03400
C331        C  0.79252442  0.18134702  0.00250747    -0.16800
C332        C  0.74560805  0.17854709  0.98490212    -0.14800
H333        H  0.64771259  0.20693837  0.95968464     0.20600
H334        H  0.73203674  0.32984695  0.04430802     0.16600
H335        H  0.64599197  0.38993560  0.03660688     0.19100
H336        H  0.73483481  0.14675909  0.96745530     0.12500
C337        C  0.24164067  0.32987028  0.99961301     0.16300
C338        C  0.19355159  0.30892387  0.00954354    -0.32700
C339        C  0.18232796  0.25624470  0.00002454     0.20700
C340        C  0.21766370  0.22562632  0.98174518     0.02900
C341        C  0.26547764  0.24678060  0.97147091    -0.22400
C342        C  0.27645986  0.29962828  0.98071238     0.12100
S343        S  0.26331299  0.39211954  0.00983953    -0.06100
C344        C  0.31976479  0.37759266  0.98804734    -0.09600
C345        C  0.32117464  0.32700906  0.97364528    -0.26200
S346        S  0.19751538  0.16219261  0.97343685    -0.03400
C347        C  0.14050008  0.17738662  0.99427049    -0.16800
C348        C  0.13756857  0.22883880  0.00707466    -0.14800
H349        H  0.16625723  0.33252526  0.02422027     0.20600
H350        H  0.29301107  0.22299861  0.95710026     0.16600
H351        H  0.35376754  0.31077863  0.95955448     0.19100
H352        H  0.10476089  0.24505882  0.02095606     0.12500
C353        C  0.70154765  0.02123259  0.86574040     0.16300
C354        C  0.64849032  0.02974891  0.86004767    -0.32700
C355        C  0.62709206  0.01154485  0.82944995     0.20700
C356        C  0.65727639  0.98666607  0.80492513     0.02900
C357        C  0.71109421  0.97774003  0.81070705    -0.22400
C358        C  0.73259696  0.99541737  0.84200769     0.12100
S359        S  0.73230299  0.03895049  0.90226291    -0.06100
C360        C  0.78841594  0.01044661  0.88668105    -0.09600
C361        C  0.78331124  0.98919546  0.85389327    -0.26200
S362        S  0.62233686  0.96874232  0.76921511    -0.03400
C363        C  0.56671159  0.99386895  0.78832692    -0.16800
C364        C  0.57571293  0.01549097  0.82030444    -0.14800
H365        H  0.62456602  0.04919598  0.87906304     0.20600
H366        H  0.73481950  0.95753207  0.79192623     0.16600
H367        H  0.81398534  0.96866235  0.84025471     0.19100
H368        H  0.54623124  0.03386515  0.83612628     0.12500
C369        C  0.23649962  0.99645487  0.87048509     0.16300
C370        C  0.29040877  0.99436266  0.86570131    -0.32700
C371        C  0.30895984  0.99331505  0.83238172     0.20700
C372        C  0.27526160  0.99429833  0.80478663     0.02900
C373        C  0.22063110  0.99600128  0.80957604    -0.22400
C374        C  0.20185146  0.99706954  0.84331011     0.12100
S375        S  0.20829808  0.99874305  0.90924334    -0.06100
C376        C  0.14793103  0.00026169  0.88962227    -0.09600
C377        C  0.15033585  0.99910772  0.85413791    -0.26200
S378        S  0.30688122  0.99383178  0.76647645    -0.03400
C379        C  0.36609594  0.99208300  0.78804368    -0.16800
C380        C  0.36047556  0.99191479  0.82317086    -0.14800
H381        H  0.31693432  0.99388358  0.88722350     0.20600
H382        H  0.19414081  0.99676183  0.78806081     0.16600
H383        H  0.11674066  0.99975757  0.83737679     0.19100
H384        H  0.39191326  0.99135811  0.84152638     0.12500
C385        C  0.99758334  0.24358651  0.84153802     0.16300
C386        C  0.01780574  0.26981561  0.81311850    -0.32700
C387        C  0.00886247  0.32484856  0.81023481     0.20700
C388        C  0.98025494  0.35276543  0.83425496     0.02900
C389        C  0.96054386  0.32661307  0.86311706    -0.22400
C390        C  0.97032057  0.27143770  0.86628566     0.12100
S391        S  0.00508030  0.17700435  0.84954447    -0.06100
C392        C  0.97247520  0.18645046  0.88727428    -0.09600
C393        C  0.95620964  0.23887602  0.89283884    -0.26200
S394        S  0.97297245  0.41933399  0.82511854    -0.03400
C395        C  0.01008180  0.40946771  0.78904835    -0.16800
C396        C  0.02627726  0.35699398  0.78457220    -0.14800
H397        H  0.03994422  0.24824505  0.79411172     0.20600
H398        H  0.93889178  0.34830450  0.88230822     0.16600
H399        H  0.93582985  0.25253155  0.91532444     0.19100
H400        H  0.04929746  0.34271432  0.76339200     0.12500
C401        C  0.99730883  0.76481904  0.83827441     0.16300
C402        C  0.01464229  0.73830523  0.80880808    -0.32700
C403        C  0.01117103  0.68224782  0.80792455     0.20700
C404        C  0.99054531  0.65390708  0.83491156     0.02900
C405        C  0.97346385  0.68037296  0.86436798    -0.22400
C406        C  0.97762157  0.73629588  0.86546166     0.12100
S407        S  0.99973581  0.83245901  0.84503047    -0.06100
C408        C  0.97491626  0.82219590  0.88523119    -0.09600
C409        C  0.96479608  0.76886158  0.89237494    -0.26200
S410        S  0.98869318  0.58625508  0.82869248    -0.03400
C411        C  0.01699992  0.59596097  0.78960144    -0.16800
C412        C  0.02682527  0.64912231  0.78192140    -0.14800
H413        H  0.03066058  0.76034430  0.78766129     0.20600
H414        H  0.95800600  0.65826794  0.88566450     0.16600
H415        H  0.94982649  0.75446121  0.91635279     0.19100
H416        H  0.04387280  0.66279576  0.75836889     0.12500
C417        C  0.76476986  0.49409104  0.65865860     0.16300
C418        C  0.79623519  0.48006949  0.68661202    -0.32700
C419        C  0.84659015  0.50203519  0.68844339     0.20700
C420        C  0.86405963  0.53727506  0.66386950     0.02900
C421        C  0.83252344  0.55176694  0.63629042    -0.22400
C422        C  0.78298670  0.52872709  0.63399522     0.12100
S423        S  0.70393155  0.46913574  0.65032705    -0.06100
C424        C  0.70406557  0.50452759  0.61282287    -0.09600
C425        C  0.74849780  0.53469242  0.60761635    -0.26200
S426        S  0.92706461  0.55667946  0.66876936    -0.03400
C427        C  0.93090445  0.51604780  0.70399244    -0.16800
C428        C  0.88482431  0.49013530  0.71196454    -0.14800
H429        H  0.78274131  0.45190039  0.70542447     0.20600
H430        H  0.84679776  0.57825037  0.61672434     0.16600
H431        H  0.75557518  0.55891998  0.58535118     0.19100
H432        H  0.88050053  0.46184410  0.73249956     0.12500
C433        C  0.18967381  0.50671071  0.65785053     0.16300
C434        C  0.21953362  0.51305439  0.62864338    -0.32700
C435        C  0.27226601  0.49988220  0.63058376     0.20700
C436        C  0.29508451  0.48157156  0.66034365     0.02900
C437        C  0.26489920  0.47530747  0.68995455    -0.22400
C438        C  0.21143748  0.48829523  0.68791215     0.12100
S439        S  0.12499305  0.51998505  0.65963814    -0.06100
C440        C  0.12554031  0.49971916  0.70154916    -0.09600
C441        C  0.17477680  0.48478871  0.71335683    -0.26200
S442        S  0.36042228  0.46765818  0.65634342    -0.03400
C443        C  0.35568798  0.48582299  0.61404969    -0.16800
C444        C  0.30646090  0.50244700  0.60428515    -0.14800
H445        H  0.20220230  0.52725138  0.60518161     0.21800
H446        H  0.28210844  0.46068516  0.71332500     0.16600
H447        H  0.18306422  0.47151888  0.73898809     0.19100
H448        H  0.29595183  0.51555646  0.57892953     0.12500
C449        C  0.49338622  0.18351386  0.69053216     0.16300
C450        C  0.49089104  0.23770221  0.68208656    -0.32700
C451        C  0.52005056  0.25499284  0.65426555     0.20700
C452        C  0.55096782  0.21984905  0.63588978     0.02900
C453        C  0.55492444  0.16576078  0.64512621    -0.22400
C454        C  0.52496361  0.14826586  0.67276965     0.12100
S455        S  0.45690162  0.15473873  0.72132330    -0.06100
C456        C  0.48415955  0.09392248  0.71064205    -0.09600
C457        C  0.52042050  0.09664634  0.68452342    -0.26200
S458        S  0.57763194  0.24723097  0.60030972    -0.03400
C459        C  0.54649575  0.30645224  0.61025109    -0.16800
C460        C  0.51825681  0.30502113  0.64014442    -0.14800
H461        H  0.46545704  0.26478398  0.69573001     0.20600
H462        H  0.57840765  0.13812382  0.63047866     0.16600
H463        H  0.54108169  0.06271449  0.67402118     0.19100
H464        H  0.49424747  0.33744329  0.64951388     0.12500
C465        C  0.49809248  0.72963378  0.65771829     0.16300
C466        C  0.48289332  0.75767518  0.68701079    -0.32700
C467        C  0.48873897  0.81345266  0.68713134     0.20700
C468        C  0.50994084  0.84027960  0.65972202     0.02900
C469        C  0.52530936  0.81220469  0.63044079    -0.22400
C470        C  0.51833573  0.75649997  0.63001818     0.12100
S471        S  0.49194364  0.66205508  0.65182355    -0.06100
C472        C  0.51605015  0.67012165  0.61132240    -0.09600
C473        C  0.52848182  0.72263840  0.60334826    -0.26200
S474        S  0.51302286  0.90825156  0.66495713    -0.03400
C475        C  0.48404274  0.90041491  0.70405452    -0.16800
C476        C  0.47375439  0.84770548  0.71252513    -0.14800
H477        H  0.46617677  0.73705332  0.70850555     0.20600
H478        H  0.54101652  0.83295721  0.60867228     0.16600
H479        H  0.54356671  0.73551268  0.57904293     0.19100
H480        H  0.45581957  0.83510558  0.73603966     0.12500
C481        C  0.76237091  0.24490295  0.48015708     0.16300
C482        C  0.78537957  0.19625955  0.47091101    -0.32700
C483        C  0.83038836  0.18066137  0.48857587     0.20700
C484        C  0.85171664  0.21216881  0.51422468     0.02900
C485        C  0.82893959  0.26104981  0.52327521    -0.22400
C486        C  0.78394623  0.27670434  0.50557954     0.12100
S487        S  0.70580228  0.26907653  0.46332288    -0.06100
C488        C  0.71147789  0.32271459  0.49068316    -0.09600
C489        C  0.75522376  0.32197871  0.51139825    -0.26200
S490        S  0.90643915  0.18616499  0.53259689    -0.03400
C491        C  0.90050804  0.13237816  0.50536212    -0.16800
C492        C  0.85820365  0.13466785  0.48341962    -0.14800
H493        H  0.76855341  0.17134066  0.45112165     0.20600
H494        H  0.84533157  0.28559534  0.54340269     0.16600
H495        H  0.76403703  0.35153026  0.53079744     0.19100
H496        H  0.84881586  0.10456740  0.46448630     0.12500
C497        C  0.32008893  0.22031567  0.49618829     0.16300
C498        C  0.29692811  0.17137529  0.48791355    -0.32700
C499        C  0.24588493  0.16291848  0.49909317     0.20700
C500        C  0.21951430  0.20087507  0.51821978     0.02900
C501        C  0.24234912  0.24998467  0.52605671    -0.22400
C502        C  0.29290157  0.25886561  0.51435271     0.12100
S503        S  0.38152274  0.23876725  0.48491296    -0.06100
C504        C  0.36957594  0.29942540  0.50413052    -0.09600
C505        C  0.32094776  0.30457087  0.51872029    -0.26200
S506        S  0.15854676  0.18263912  0.53020628    -0.03400
C507        C  0.16793615  0.12370910  0.50832414    -0.16800
C508        C  0.21618309  0.11872821  0.49293361    -0.14800
H509        H  0.31758018  0.14143989  0.47325672     0.20600
H510        H  0.22151426  0.28008601  0.54046218     0.16600
H511        H  0.30688428  0.33991981  0.53176444     0.19100
H512        H  0.22865188  0.08473976  0.47788848     0.12500
C513        C  0.26458222  0.69812230  0.50077938     0.16300
C514        C  0.21557269  0.71947554  0.50817297    -0.32700
C515        C  0.20497513  0.77131781  0.49702875     0.20700
C516        C  0.24104371  0.80033126  0.47857962     0.02900
C517        C  0.29040265  0.77912483  0.47136159    -0.22400
C518        C  0.30144995  0.72759702  0.48327206     0.12100
S519        S  0.28489746  0.63629701  0.51285269    -0.06100
C520        C  0.34434222  0.65073285  0.49508514    -0.09600
C521        C  0.34768778  0.70065536  0.48013970    -0.26200
S522        S  0.22040884  0.86273847  0.46768708    -0.03400
C523        C  0.16330690  0.85021200  0.48944565    -0.16800
C524        C  0.16055309  0.79970608  0.50345397    -0.14800
H525        H  0.18720823  0.69695888  0.52251084     0.20600
H526        H  0.31916176  0.80206889  0.45763587     0.16600
H527        H  0.38202530  0.71629766  0.46774329     0.19100
H528        H  0.12838558  0.78515883  0.51853885     0.12500
C529        C  0.74022947  0.75585156  0.49678394     0.16300
C530        C  0.76419336  0.80373085  0.48720581    -0.32700
C531        C  0.81471303  0.81366412  0.49945098     0.20700
C532        C  0.83975237  0.77833624  0.52112615     0.02900
C533        C  0.81573186  0.73046789  0.53078876    -0.22400
C534        C  0.76583475  0.71969784  0.51762922     0.12100
S535        S  0.68007007  0.73535667  0.48329056    -0.06100
C536        C  0.69024816  0.67653391  0.50484661    -0.09600
C537        C  0.73744688  0.67385187  0.52216995    -0.26200
S538        S  0.90096122  0.79784155  0.53316697    -0.03400
C539        C  0.89305228  0.85380220  0.50828694    -0.16800
C540        C  0.84524856  0.85677517  0.49175361    -0.14800
H541        H  0.74474831  0.83149144  0.47033855     0.20600
H542        H  0.83554929  0.70229704  0.54718892     0.16600
H543        H  0.75045843  0.63996292  0.53697913     0.19100
H544        H  0.83356572  0.88885143  0.47497661     0.12500
C545        C  0.28534230  0.48859921  0.34545925     0.16300
C546        C  0.25625705  0.49708801  0.31549081    -0.32700
C547        C  0.20148689  0.49519958  0.31767699     0.20700
C548        C  0.17698000  0.48526934  0.34831768     0.02900
C549        C  0.20590522  0.47641498  0.37811208    -0.22400
C550        C  0.26043132  0.47842769  0.37593195     0.12100
S551        S  0.35208326  0.49092236  0.34880287    -0.06100
C552        C  0.34619224  0.47849196  0.39179382    -0.09600
C553        C  0.29489598  0.47234841  0.40237906    -0.26200
S554        S  0.11058486  0.48520426  0.34598030    -0.03400
C555        C  0.11501097  0.49900150  0.30299476    -0.16800
C556        C  0.16619452  0.50261742  0.29155927    -0.14800
H557        H  0.27543297  0.50527482  0.29160739     0.20600
H558        H  0.18669453  0.46875753  0.40207162     0.16600
H559        H  0.28318098  0.46505166  0.42838377     0.19100
H560        H  0.17691588  0.51030149  0.26543455     0.12500
C561        C  0.83149192  0.49248615  0.30885436     0.16300
C562        C  0.78072822  0.47537097  0.31681254    -0.32700
C563        C  0.75713758  0.49724830  0.34598606     0.20700
C564        C  0.78306609  0.53467312  0.36597985     0.02900
C565        C  0.83309873  0.55222352  0.35780733    -0.22400
C566        C  0.85671791  0.53001594  0.32907453     0.12100
S567        S  0.86889997  0.46856134  0.27608238    -0.06100
C568        C  0.91893266  0.50896656  0.29036829    -0.09600
C569        C  0.90653335  0.53967237  0.31860203    -0.26200
S570        S  0.75082474  0.55359499  0.40162235    -0.03400
C571        C  0.70142072  0.51072896  0.38989606    -0.16800
C572        C  0.70942681  0.48371590  0.35944910    -0.14800
H573        H  0.76115877  0.44529535  0.30155132     0.20600
H574        H  0.85347929  0.58072864  0.37385750     0.16600
H575        H  0.93327389  0.56657314  0.33146282     0.19100
H576        H  0.68336229  0.45390482  0.34885928     0.12500
C577        C  0.48064002  0.72597852  0.34406626     0.16300
C578        C  0.45852867  0.75424009  0.31678172    -0.32700
C579        C  0.47354541  0.80777427  0.31236731     0.20700
C580        C  0.50904319  0.83212422  0.33408390     0.02900
C581        C  0.53064692  0.80409540  0.36165411    -0.22400
C582        C  0.51549297  0.75063255  0.36614996     0.12100
S583        S  0.46780473  0.66063096  0.35367158    -0.06100
C584        C  0.50904390  0.66680554  0.38821904    -0.09600
C585        C  0.53157146  0.71702228  0.39167850    -0.26200
S586        S  0.52316788  0.89687006  0.32370761    -0.03400
C587        C  0.48052529  0.89157928  0.28973515    -0.16800
C588        C  0.45689377  0.84157373  0.28708803    -0.14800
H589        H  0.43093566  0.73526688  0.29965402     0.20600
H590        H  0.55818762  0.82308696  0.37880810     0.16600
H591        H  0.55804107  0.72841962  0.41200159     0.19100
H592        H  0.42959786  0.82983088  0.26736943     0.12500
C593        C  0.51326602  0.13830144  0.33532185     0.16300
C594        C  0.53229129  0.16483745  0.36443070    -0.32700
C595        C  0.52678410  0.22067894  0.36609206     0.20700
C596        C  0.50470988  0.24907117  0.33949299     0.02900
C597        C  0.48588284  0.22254157  0.31028541    -0.22400
C598        C  0.48995984  0.16650881  0.30909188     0.12100
S599        S  0.51503993  0.07063875  0.32883946    -0.06100
C600        C  0.48292117  0.08001050  0.29068675    -0.09600
C601        C  0.47209025  0.13329004  0.28356435    -0.26200
S602        S  0.50019473  0.31640281  0.34696215    -0.03400
C603        C  0.52680514  0.30622077  0.38685420    -0.16800
C604        C  0.53947433  0.25314094  0.39327226    -0.14800
H605        H  0.54959345  0.14276019  0.38523902     0.20600
H606        H  0.46769579  0.24450931  0.28974739     0.16600
H607        H  0.45294548  0.14712256  0.26063163     0.19100
H608        H  0.55572247  0.23876695  0.41700471     0.12500
loop_ 
_geom_bond_atom_site_label_1 
_geom_bond_atom_site_label_2 
_geom_bond_distance 
_geom_bond_site_symmetry_2 
_ccdc_geom_bond_type 
O1          Zr37   2.466       .  S
O1           C12   1.297       .  A
O2          Zr36   2.469       .  S
O2           C13   1.298       .  A
O3           Zr9   2.422       .  S
O3           C14   1.288       .  A
O4           Zr9   2.425       .  S
O4           C15   1.289       .  A
O5          Zr39   2.426       .  S
O5           C15   1.290       .  A
O6          Zr38   2.447       .  S
O6           C14   1.293       .  A
O7           Zr9   2.428       .  S
O7           C13   1.290       .  A
O8           Zr9   2.449       .  S
O8           C12   1.294       .  A
Zr9          O10   2.348       .  S
Zr9          O11   2.330       .  S
Zr9          O19   2.335       .  S
Zr9          O17   2.348       .  S
O10         Zr36   2.349       .  S
O10         Zr39   2.333       .  S
O11         Zr37   2.353       .  S
O11         Zr38   2.346       .  S
C12         C603   1.488       .  S
C13         C459   1.475       .  S
C14         C488   1.464       .  S
C15         C504   1.459       .  S
H16          O17   0.961       .  S
O17         Zr36   2.358       .  S
O17         Zr38   2.332       .  S
H18          O19   0.960       .  S
O19         Zr37   2.347       .  S
O19         Zr39   2.338       .  S
O20         Zr36   2.474       .  S
O20          C43   1.299       .  A
O21         Zr37   2.463       .  S
O21          C44   1.297       .  A
O22         Zr38   2.439       .  S
O22          C45   1.292       .  A
O23         Zr39   2.434       .  S
O23          C46   1.292       .  A
O24         Zr39   2.426       .  S
O24          C47   1.291       .  A
O25         Zr38   2.413       .  S
O25          C48   1.289       .  A
O26         Zr40   2.442       .  S
O26          C49   1.292       .  A
O27         Zr40   2.437       .  S
O27          C50   1.291       .  A
O28         Zr38   2.440       .  S
O28          C49   1.292       .  A
O29         Zr39   2.428       .  S
O29          C50   1.290       .  A
O30         Zr36   2.443       .  S
O30          C45   1.292       .  A
O31         Zr37   2.467       .  S
O31          C48   1.297       .  A
O32         Zr37   2.477       .  S
O32          C47   1.299       .  A
O33         Zr36   2.449       .  S
O33          C46   1.292       .  A
O34         Zr40   2.427       .  S
O34          C43   1.291       .  A
O35         Zr40   2.436       .  S
O35          C44   1.291       .  A
Zr36         O42   2.348       .  S
Zr36         O54   2.352       .  S
Zr37         O41   2.342       .  S
Zr37         O52   2.362       .  S
Zr38         O42   2.331       .  S
Zr38         O52   2.348       .  S
Zr39         O41   2.336       .  S
Zr39         O54   2.332       .  S
Zr40         O41   2.336       .  S
Zr40         O42   2.340       .  S
Zr40         O54   2.346       .  S
Zr40         O52   2.330       .  S
C43         C472   1.480       .  S
C44         C584   1.478       .  S
C45         C424   1.470       .  S
C46         C443   1.476       .  S
C47         C552   1.486       .  S
C48         C571   1.467       .  S
C49         C536   1.473       .  S
C50         C520   1.466       .  S
H51          O52   0.961       .  S
H53          O54   0.961       .  S
N55          C60   1.350   1_455  A
N55          C59   1.350       .  A
N55          H87   1.042       .  S
N56          C63   1.348   1_565  A
N56          C64   1.347       .  A
N57          C62   1.352   1_455  A
N57          C61   1.355       .  A
N57          H88   1.041       .  S
N58          C65   1.352   1_565  A
N58          C66   1.351       .  A
C59          C67   1.387       .  A
C59          C75   1.408       .  A
C60          C76   1.407       .  A
C60          C68   1.386   1_655  A
C61          C69   1.387       .  A
C61          C78   1.417       .  A
C62          C77   1.415       .  A
C62          C70   1.386       .  A
C63          C75   1.407       .  A
C63          C71   1.386       .  A
C64          C78   1.407       .  A
C64          C72   1.386       .  A
C65          C73   1.384       .  A
C65          C76   1.409       .  A
C66          C74   1.388       .  A
C66          C77   1.414       .  A
C67          C68   1.375       .  A
C67          H79   1.082       .  S
C68          H80   1.082   1_455  S
C69          C70   1.378   1_455  A
C69          H81   1.082       .  S
C70          H82   1.082       .  S
C71          C72   1.372   1_545  A
C71          H83   1.082       .  S
C72          H84   1.082       .  S
C73          C74   1.373   1_545  A
C73          H85   1.082       .  S
C74          H86   1.082       .  S
C75         C507   1.478       .  S
C76         C491   1.480       .  S
C77         C539   1.486       .  S
C78         C523   1.487       .  S
O89        Zr125   2.468   1_565  S
O89         C100   1.298       .  A
O90        Zr124   2.468   1_565  S
O90         C101   1.298       .  A
O91         Zr97   2.454   1_455  S
O91         C102   1.294       .  A
O92         Zr97   2.453   1_554  S
O92         C103   1.294   1_554  A
O93        Zr127   2.417   1_565  S
O93         C103   1.288       .  A
O94        Zr126   2.419   1_565  S
O94         C102   1.287       .  A
O95         Zr97   2.455   1_554  S
O95         C101   1.296       .  A
O96         Zr97   2.444       .  S
O96         C100   1.294       .  A
Zr97         O98   2.341   1_556  S
Zr97         O99   2.348   1_655  S
Zr97        O107   2.351       .  S
Zr97        O105   2.342   1_656  S
O98        Zr124   2.358   1_565  S
O98        Zr127   2.342   1_564  S
O99        Zr125   2.348   1_465  S
O99        Zr126   2.329   1_565  S
C100        C408   1.485       .  S
C101        C264   1.489       .  S
C102        C296   1.464       .  S
C103        C312   1.470   1_556  S
H104        O105   0.967       .  S
O105       Zr124   2.347   1_465  S
O105       Zr126   2.330   1_564  S
H106        O107   0.966       .  S
O107       Zr125   2.366   1_565  S
O107       Zr127   2.343   1_565  S
O108       Zr124   2.476       .  S
O108        C131   1.300       .  A
O109       Zr125   2.473       .  S
O109        C132   1.299       .  A
O110       Zr126   2.418   1_554  S
O110        C133   1.289       .  A
O111       Zr127   2.434   1_554  S
O111        C134   1.292       .  A
O112       Zr127   2.431       .  S
O112        C135   1.291       .  A
O113       Zr126   2.405       .  S
O113        C136   1.286       .  A
O114       Zr128   2.438   1_455  S
O114        C137   1.291       .  A
O115       Zr128   2.446   1_554  S
O115        C138   1.292       .  A
O116       Zr126   2.419       .  S
O116        C137   1.287       .  A
O117       Zr127   2.436       .  S
O117        C138   1.290   1_556  A
O118       Zr124   2.480   1_455  S
O118        C133   1.299       .  A
O119       Zr125   2.494   1_455  S
O119        C136   1.300       .  A
O120       Zr125   2.471       .  S
O120        C135   1.297       .  A
O121       Zr124   2.473       .  S
O121        C134   1.298       .  A
O122       Zr128   2.442   1_554  S
O122        C131   1.293       .  A
O123       Zr128   2.438       .  S
O123        C132   1.292       .  A
Zr124       O130   2.351   1_655  S
Zr124       O142   2.359       .  S
Zr125       O129   2.367       .  S
Zr125       O140   2.351   1_655  S
Zr126       O130   2.333   1_556  S
Zr126       O140   2.329       .  S
Zr127       O129   2.334       .  S
Zr127       O142   2.337   1_556  S
Zr128       O129   2.346       .  S
Zr128       O130   2.346   1_656  S
Zr128       O142   2.335   1_556  S
Zr128       O140   2.351   1_655  S
C131        C280   1.489       .  S
C132        C392   1.481       .  S
C133        C232   1.486   1_545  S
C134        C251   1.481       .  S
C135        C360   1.483       .  S
C136        C376   1.490       .  S
C137        C347   1.462       .  S
C138        C331   1.470       .  S
H139        O140   0.966       .  S
H141        O142   0.967       .  S
N143        C148   1.351       .  A
N143        C147   1.349   1_556  A
N143        H175   1.043       .  S
N144        C151   1.350   1_554  A
N144        C152   1.352       .  A
N145        C150   1.352       .  A
N145        C149   1.352       .  A
N145        H176   1.042   1_554  S
N146        C153   1.348       .  A
N146        C154   1.346       .  A
C147        C155   1.385       .  A
C147        C163   1.406       .  A
C148        C164   1.413       .  A
C148        C156   1.388   1_556  A
C149        C157   1.387       .  A
C149        C166   1.416       .  A
C150        C165   1.412   1_554  A
C150        C158   1.386       .  A
C151        C163   1.409   1_556  A
C151        C159   1.384       .  A
C152        C166   1.413       .  A
C152        C160   1.387   1_554  A
C153        C161   1.386       .  A
C153        C164   1.407       .  A
C154        C162   1.387       .  A
C154        C165   1.406       .  A
C155        C156   1.377       .  A
C155        H167   1.082       .  S
C156        H168   1.082       .  S
C157        C158   1.381       .  A
C157        H169   1.082       .  S
C158        H170   1.082       .  S
C159        C160   1.373       .  A
C159        H171   1.082       .  S
C160        H172   1.081       .  S
C161        C162   1.374       .  A
C161        H173   1.082       .  S
C162        H174   1.082       .  S
C163        C328   1.481       .  S
C164        C344   1.481       .  S
C165        C299   1.474   1_556  S
C166        C315   1.493       .  S
C177        C178   1.535       .  S
C177        C183   1.537       .  S
C177        C181   1.542       .  S
C177        C555   1.527       .  S
C178        H185   1.086       .  S
C178        C179   1.368       .  D
C179        C180   1.546   1_455  S
C179        C283   1.494       .  S
C180        C184   1.542       .  S
C180        C182   1.553   1_655  S
C180        H186   1.110       .  S
C181        H187   1.085       .  S
C181        C182   1.373       .  D
C182        C267   1.497       .  S
C183        H188   1.085       .  S
C183        C184   1.364   1_455  D
C184        C568   1.481       .  S
C189        C190   1.534       .  S
C189        C195   1.538       .  S
C189        C193   1.540   1_565  S
C189        C235   1.529       .  S
C190        H197   1.085       .  S
C190        C191   1.370       .  D
C191        C192   1.551       .  S
C191        C587   1.497       .  S
C192        C196   1.542       .  S
C192        C194   1.546   1_565  S
C192        H198   1.109       .  S
C193        H199   1.086       .  S
C193        C194   1.371       .  D
C194        C600   1.490       .  S
C195        H200   1.084       .  S
C195        C196   1.367       .  D
C196        C248   1.489       .  S
C201        C202   1.535       .  S
C201        C207   1.534       .  S
C201        C205   1.535       .  S
C201        C440   1.522       .  S
C202        H209   1.086       .  S
C202        C203   1.369       .  D
C203        C204   1.544   1_455  S
C203        C411   1.481       .  S
C204        C208   1.542       .  S
C204        C206   1.547   1_655  S
C204        H210   1.110       .  S
C205        H211   1.085       .  S
C205        C206   1.372       .  D
C206        C395   1.490       .  S
C207        H212   1.084       .  S
C207        C208   1.360   1_455  D
C208        C427   1.479       .  S
C213        C214   1.527   1_565  S
C213        C219   1.548       .  S
C213        C217   1.529       .  S
C213        C379   1.529       .  S
C214        H221   1.086       .  S
C214        C215   1.367       .  D
C215        C216   1.547   1_545  S
C215        C456   1.488       .  S
C216        C220   1.541       .  S
C216        C218   1.545       .  S
C216        H222   1.110       .  S
C217        H223   1.086       .  S
C217        C218   1.367       .  D
C218        C475   1.482       .  S
C219        H224   1.082       .  S
C219        C220   1.375       .  D
C220        C363   1.492       .  S
C225        C230   1.385       .  A
C225        C226   1.408       .  A
C225        S231   1.718   1_565  A
C226        C227   1.409       .  A
C226        H237   1.082       .  S
C227        C236   1.379       .  A
C227        C228   1.385       .  A
C228        C229   1.403       .  A
C228        S234   1.707       .  A
C229        C230   1.404       .  A
C229        H238   1.083       .  S
C230        C233   1.371       .  A
S231        C232   1.726   1_545  A
C232        C233   1.392       .  A
C233        H239   1.083       .  S
S234        C235   1.731       .  A
C235        C236   1.393       .  A
C236        H240   1.083       .  S
C241        C246   1.385   1_565  A
C241        C242   1.414       .  A
C241        S247   1.722       .  A
C242        C243   1.414       .  A
C242        H253   1.083       .  S
C243        C252   1.386       .  A
C243        C244   1.387   1_565  A
C244        C245   1.396       .  A
C244        S250   1.698       .  A
C245        C246   1.397       .  A
C245        H254   1.083       .  S
C246        C249   1.366       .  A
S247        C248   1.729       .  A
C248        C249   1.386   1_565  A
C249        H255   1.083       .  S
S250        C251   1.721       .  A
C251        C252   1.395   1_545  A
C252        H256   1.083       .  S
C257        C262   1.386   1_455  A
C257        C258   1.411       .  A
C257        S263   1.716       .  A
C258        C259   1.411       .  A
C258        H269   1.083       .  S
C259        C268   1.382       .  A
C259        C260   1.385   1_455  A
C260        C261   1.405       .  A
C260        S266   1.711       .  A
C261        C262   1.405       .  A
C261        H270   1.083       .  S
C262        C265   1.378       .  A
S263        C264   1.729   1_455  A
C264        C265   1.391       .  A
C265        H271   1.083       .  S
S266        C267   1.724   1_655  A
C267        C268   1.397       .  A
C268        H272   1.083       .  S
C273        C278   1.386       .  A
C273        C274   1.405   1_655  A
C273        S279   1.716   1_655  A
C274        C275   1.407       .  A
C274        H285   1.083       .  S
C275        C284   1.374       .  A
C275        C276   1.385   1_455  A
C276        C277   1.408       .  A
C276        S282   1.718       .  A
C277        C278   1.410       .  A
C277        H286   1.083       .  S
C278        C281   1.377       .  A
S279        C280   1.726   1_455  A
C280        C281   1.394       .  A
C281        H287   1.083       .  S
S282        C283   1.727   1_655  A
C283        C284   1.392       .  A
C284        H288   1.083       .  S
C289        C294   1.388   1_556  A
C289        C290   1.401       .  A
C289        S295   1.705       .  A
C290        C291   1.401       .  A
C290        H301   1.083       .  S
C291        C300   1.370       .  A
C291        C292   1.388   1_556  A
C292        C293   1.402       .  A
C292        S298   1.706       .  A
C293        C294   1.402       .  A
C293        H302   1.083       .  S
C294        C297   1.372       .  A
S295        C296   1.722       .  A
C296        C297   1.384   1_556  A
C297        H303   1.083       .  S
S298        C299   1.721       .  A
C299        C300   1.382   1_554  A
C300        H304   1.083       .  S
C305        C310   1.387   1_556  A
C305        C306   1.400       .  A
C305        S311   1.704       .  A
C306        C307   1.401   1_556  A
C306        H317   1.083       .  S
C307        C316   1.369       .  A
C307        C308   1.386       .  A
C308        C309   1.403       .  A
C308        S314   1.706       .  A
C309        C310   1.403       .  A
C309        H318   1.083       .  S
C310        C313   1.371       .  A
S311        C312   1.724   1_556  A
C312        C313   1.386       .  A
C313        H319   1.083       .  S
S314        C315   1.730       .  A
C315        C316   1.388       .  A
C316        H320   1.083   1_554  S
C321        C326   1.387   1_556  A
C321        C322   1.402       .  A
C321        S327   1.708       .  A
C322        C323   1.404       .  A
C322        H333   1.083       .  S
C323        C332   1.372       .  A
C323        C324   1.387   1_556  A
C324        C325   1.400       .  A
C324        S330   1.706       .  A
C325        C326   1.400       .  A
C325        H334   1.083       .  S
C326        C329   1.367       .  A
S327        C328   1.724   1_556  A
C328        C329   1.385       .  A
C329        H335   1.083       .  S
S330        C331   1.722       .  A
C331        C332   1.387   1_554  A
C332        H336   1.083       .  S
C337        C342   1.387       .  A
C337        C338   1.399   1_556  A
C337        S343   1.701   1_556  A
C338        C339   1.399       .  A
C338        H349   1.083       .  S
C339        C348   1.368       .  A
C339        C340   1.388   1_554  A
C340        C341   1.399       .  A
C340        S346   1.700       .  A
C341        C342   1.399       .  A
C341        H350   1.083       .  S
C342        C345   1.367       .  A
S343        C344   1.724   1_554  A
C344        C345   1.385       .  A
C345        H351   1.083       .  S
S346        C347   1.722       .  A
C347        C348   1.383   1_556  A
C348        H352   1.083       .  S
C353        C358   1.387   1_545  A
C353        C354   1.395       .  A
C353        S359   1.692       .  A
C354        C355   1.394       .  A
C354        H365   1.083       .  S
C355        C364   1.368       .  A
C355        C356   1.385   1_545  A
C356        C357   1.416       .  A
C356        S362   1.720       .  A
C357        C358   1.415       .  A
C357        H366   1.083       .  S
C358        C361   1.389       .  A
S359        C360   1.721       .  A
C360        C361   1.397   1_545  A
C361        H367   1.083       .  S
S362        C363   1.733       .  A
C363        C364   1.385   1_565  A
C364        H368   1.083       .  S
C369        C374   1.386       .  A
C369        C370   1.398       .  A
C369        S375   1.690       .  A
C370        C371   1.396       .  A
C370        H381   1.083       .  S
C371        C380   1.373       .  A
C371        C372   1.384       .  A
C372        C373   1.416       .  A
C372        S378   1.714       .  A
C373        C374   1.413       .  A
C373        H382   1.083       .  S
C374        C377   1.391       .  A
S375        C376   1.727   1_565  A
C376        C377   1.397   1_545  A
C377        H383   1.082       .  S
S378        C379   1.737       .  A
C379        C380   1.389       .  A
C380        H384   1.080       .  S
C385        C390   1.386       .  A
C385        C386   1.401   1_655  A
C385        S391   1.709   1_655  A
C386        C387   1.402       .  A
C386        H397   1.083       .  S
C387        C396   1.370       .  A
C387        C388   1.385   1_455  A
C388        C389   1.409       .  A
C388        S394   1.717       .  A
C389        C390   1.410       .  A
C389        H398   1.083       .  S
C390        C393   1.378       .  A
S391        C392   1.722   1_455  A
C392        C393   1.394       .  A
C393        H399   1.083       .  S
S394        C395   1.728   1_655  A
C395        C396   1.389       .  A
C396        H400   1.082       .  S
C401        C406   1.386       .  A
C401        C402   1.406   1_655  A
C401        S407   1.714       .  A
C402        C403   1.407       .  A
C402        H413   1.083       .  S
C403        C412   1.375       .  A
C403        C404   1.386   1_455  A
C404        C405   1.403       .  A
C404        S410   1.711       .  A
C405        C406   1.405       .  A
C405        H414   1.083       .  S
C406        C409   1.374       .  A
S407        C408   1.727       .  A
C408        C409   1.391       .  A
C409        H415   1.083       .  S
S410        C411   1.721   1_655  A
C411        C412   1.390       .  A
C412        H416   1.083       .  S
C417        C422   1.387       .  A
C417        C418   1.406       .  A
C417        S423   1.711       .  A
C418        C419   1.406       .  A
C418        H429   1.083       .  S
C419        C428   1.378       .  A
C419        C420   1.388       .  A
C420        C421   1.399       .  A
C420        S426   1.698       .  A
C421        C422   1.398       .  A
C421        H430   1.083       .  S
C422        C425   1.368       .  A
S423        C424   1.724       .  A
C424        C425   1.384       .  A
C425        H431   1.083       .  S
S426        C427   1.725       .  A
C427        C428   1.387       .  A
C428        H432   1.083       .  S
C433        C438   1.385       .  A
C433        C434   1.393       .  A
C433        S439   1.694       .  A
C434        C435   1.394       .  A
C434        H445   1.083       .  S
C435        C444   1.361       .  A
C435        C436   1.386       .  A
C436        C437   1.411       .  A
C436        S442   1.720       .  A
C437        C438   1.412       .  A
C437        H446   1.083       .  S
C438        C441   1.379       .  A
S439        C440   1.726       .  A
C440        C441   1.395       .  A
C441        H447   1.082       .  S
S442        C443   1.729       .  A
C443        C444   1.383       .  A
C444        H448   1.084       .  S
C449        C454   1.386       .  A
C449        C450   1.400       .  A
C449        S455   1.697       .  A
C450        C451   1.399       .  A
C450        H461   1.083       .  S
C451        C460   1.373       .  A
C451        C452   1.387       .  A
C452        C453   1.408       .  A
C452        S458   1.707       .  A
C453        C454   1.406       .  A
C453        H462   1.083       .  S
C454        C457   1.380       .  A
S455        C456   1.726       .  A
C456        C457   1.391       .  A
C457        H463   1.082       .  S
S458        C459   1.728       .  A
C459        C460   1.384       .  A
C460        H464   1.083       .  S
C465        C470   1.386       .  A
C465        C466   1.403       .  A
C465        S471   1.714       .  A
C466        C467   1.405       .  A
C466        H477   1.083       .  S
C467        C476   1.369       .  A
C467        C468   1.386       .  A
C468        C469   1.404       .  A
C468        S474   1.715       .  A
C469        C470   1.406       .  A
C469        H478   1.083       .  S
C470        C473   1.371       .  A
S471        C472   1.724       .  A
C472        C473   1.391       .  A
C473        H479   1.083       .  S
S474        C475   1.723       .  A
C475        C476   1.389       .  A
C476        H480   1.083       .  S
C481        C486   1.388       .  A
C481        C482   1.401       .  A
C481        S487   1.704       .  A
C482        C483   1.401       .  A
C482        H493   1.083       .  S
C483        C492   1.369       .  A
C483        C484   1.388       .  A
C484        C485   1.401       .  A
C484        S490   1.706       .  A
C485        C486   1.402       .  A
C485        H494   1.083       .  S
C486        C489   1.371       .  A
S487        C488   1.722       .  A
C488        C489   1.384       .  A
C489        H495   1.083       .  S
S490        C491   1.723       .  A
C491        C492   1.384       .  A
C492        H496   1.083       .  S
C497        C502   1.388       .  A
C497        C498   1.398       .  A
C497        S503   1.704       .  A
C498        C499   1.400       .  A
C498        H509   1.083       .  S
C499        C508   1.364       .  A
C499        C500   1.387       .  A
C500        C501   1.395       .  A
C500        S506   1.699       .  A
C501        C502   1.397       .  A
C501        H510   1.083       .  S
C502        C505   1.362       .  A
S503        C504   1.721       .  A
C504        C505   1.381       .  A
C505        H511   1.083       .  S
S506        C507   1.722       .  A
C507        C508   1.386       .  A
C508        H512   1.083       .  S
C513        C518   1.388       .  A
C513        C514   1.398       .  A
C513        S519   1.702       .  A
C514        C515   1.398       .  A
C514        H525   1.083       .  S
C515        C524   1.367       .  A
C515        C516   1.387       .  A
C516        C517   1.403       .  A
C516        S522   1.706       .  A
C517        C518   1.403       .  A
C517        H526   1.083       .  S
C518        C521   1.370       .  A
S519        C520   1.720       .  A
C520        C521   1.387       .  A
C521        H527   1.083       .  S
S522        C523   1.730       .  A
C523        C524   1.384       .  A
C524        H528   1.083       .  S
C529        C534   1.387       .  A
C529        C530   1.402       .  A
C529        S535   1.708       .  A
C530        C531   1.402       .  A
C530        H541   1.083       .  S
C531        C540   1.370       .  A
C531        C532   1.387       .  A
C532        C533   1.403       .  A
C532        S538   1.709       .  A
C533        C534   1.404       .  A
C533        H542   1.083       .  S
C534        C537   1.373       .  A
S535        C536   1.722       .  A
C536        C537   1.388       .  A
C537        H543   1.083       .  S
S538        C539   1.724       .  A
C539        C540   1.387       .  A
C540        H544   1.083       .  S
C545        C550   1.385       .  A
C545        C546   1.408       .  A
C545        S551   1.718       .  A
C546        C547   1.409       .  A
C546        H557   1.083       .  S
C547        C556   1.379       .  A
C547        C548   1.385       .  A
C548        C549   1.402       .  A
C548        S554   1.706       .  A
C549        C550   1.403       .  A
C549        H558   1.083       .  S
C550        C553   1.370       .  A
S551        C552   1.727       .  A
C552        C553   1.391       .  A
C553        H559   1.083       .  S
S554        C555   1.731       .  A
C555        C556   1.393       .  A
C556        H560   1.083       .  S
C561        C566   1.386       .  A
C561        C562   1.408       .  A
C561        S567   1.716       .  A
C562        C563   1.408       .  A
C562        H573   1.083       .  S
C563        C572   1.379       .  A
C563        C564   1.388       .  A
C564        C565   1.396       .  A
C564        S570   1.696       .  A
C565        C566   1.397       .  A
C565        H574   1.083       .  S
C566        C569   1.367       .  A
S567        C568   1.725       .  A
C568        C569   1.385       .  A
C569        H575   1.083       .  S
S570        C571   1.721       .  A
C571        C572   1.388       .  A
C572        H576   1.083       .  S
C577        C582   1.386       .  A
C577        C578   1.405       .  A
C577        S583   1.714       .  A
C578        C579   1.407       .  A
C578        H589   1.083       .  S
C579        C588   1.375       .  A
C579        C580   1.385       .  A
C580        C581   1.406       .  A
C580        S586   1.713       .  A
C581        C582   1.407       .  A
C581        H590   1.083       .  S
C582        C585   1.375       .  A
S583        C584   1.724       .  A
C584        C585   1.390       .  A
C585        H591   1.083       .  S
S586        C587   1.727       .  A
C587        C588   1.395       .  A
C588        H592   1.082       .  S
C593        C598   1.386       .  A
C593        C594   1.406       .  A
C593        S599   1.713       .  A
C594        C595   1.407       .  A
C594        H605   1.083       .  S
C595        C604   1.377       .  A
C595        C596   1.386       .  A
C596        C597   1.407       .  A
C596        S602   1.714       .  A
C597        C598   1.408       .  A
C597        H606   1.083       .  S
C598        C601   1.377       .  A
S599        C600   1.725       .  A
C600        C601   1.392       .  A
C601        H607   1.083       .  S
S602        C603   1.727       .  A
C603        C604   1.392       .  A
C604        H608   1.083       .  S
