geometry optimzed in LAMMPS
_audit_creation_date              2020-12-01 
_audit_creation_method            'lammps2cif' 
_symmetry_space_group_name_H-M    'P1' 
_symmetry_Int_Tables_number       1 
_symmetry_cell_setting            triclinic 
loop_ 
_symmetry_equiv_pos_as_xyz 
  x,y,z 
_cell_length_a                    41.73301458 
_cell_length_b                    43.00066069125065 
_cell_length_c                    37.07922863458326 
_cell_angle_alpha                 90.39338466133519 
_cell_angle_beta                  89.76687511650269 
_cell_angle_gamma                 90.20167502387336 
loop_ 
_atom_site_label 
_atom_site_type_symbol 
_atom_site_fract_x 
_atom_site_fract_y 
_atom_site_fract_z 
_atom_site_charge 
O1          O  0.46860707  0.21457161  0.54229387    -0.74200
O2          O  0.46880136  0.27663290  0.46893863    -0.74300
O3          O  0.47084218  0.21346655  0.46907454    -0.74300
O4          O  0.46688663  0.27729998  0.54193888    -0.74400
O5          O  0.01982999  0.27817961  0.54445704    -0.74300
O6          O  0.02413992  0.21654288  0.46940164    -0.74300
O7          O  0.02170376  0.27943309  0.47184703    -0.74300
O8          O  0.02225750  0.21538077  0.54267981    -0.74300
Ni9        Ni  0.46687287  0.24538602  0.50543586     1.25400
Ni10       Ni  0.02386768  0.24739543  0.50713048     1.25400
C11         C  0.99556217  0.20491384  0.55470201     0.87900
C12         C  0.49541546  0.28882639  0.45901131     0.87900
C13         C  0.49813946  0.20412356  0.45724170     0.87900
C14         C  0.99260572  0.28829097  0.55549939     0.88100
C15         C  0.49917980  0.46355287  0.27681835     0.86700
C16         C  0.47207705  0.46461934  0.24835040    -0.53600
C17         C  0.47484720  0.99958175  0.22739132     0.09600
C18         C  0.50067527  0.02319161  0.23843189     0.20600
C19         C  0.02990176  0.46889368  0.25505969    -0.54300
C20         C  0.03183605  0.00639311  0.23138418     0.09700
C21         C  0.50010023  0.99762454  0.29670313    -0.53800
C22         C  0.99685074  0.02553705  0.27989379     0.10300
H23         H  0.45379031  0.44718070  0.24407906     0.14800
H24         H  0.49874335  0.04581910  0.22433913     0.00500
H25         H  0.04968775  0.45255033  0.25431204     0.15100
H26         H  0.49905033  0.99550214  0.32586136     0.14900
C27         C  0.00085351  0.47838982  0.72031123     0.86700
C28         C  0.03156468  0.48093214  0.74254104    -0.53600
C29         C  0.03413168  0.99926013  0.76637094     0.09600
C30         C  0.00376727  0.01926669  0.76388344     0.20600
C31         C  0.47325901  0.48164563  0.74789598    -0.54300
C32         C  0.47632253  0.99682113  0.76995920     0.09700
C33         C  0.00186914  0.00317147  0.70100228    -0.53800
C34         C  0.50223575  0.02828060  0.72389712     0.10300
H35         H  0.05023250  0.46337801  0.74205126     0.14800
H36         H  0.00347432  0.03956483  0.78258542     0.00500
H37         H  0.45467121  0.46400790  0.74968032     0.15100
H38         H  0.99879212  0.00669688  0.67238874     0.14900
O39         O  0.22012509  0.04475414  0.03618730    -0.74200
O40         O  0.28580841  0.04393846  0.96353054    -0.74300
O41         O  0.22069145  0.04362231  0.96330243    -0.74300
O42         O  0.28520435  0.04498213  0.03652344    -0.74400
O43         O  0.28270634  0.48867630  0.03709855    -0.74300
O44         O  0.21875674  0.48941960  0.96308367    -0.74300
O45         O  0.28359501  0.49076280  0.96394472    -0.74300
O46         O  0.21779236  0.48709439  0.03603301    -0.74300
Ni47       Ni  0.25297666  0.04614247  0.99983757     1.25400
Ni48       Ni  0.25078518  0.48717400  0.99999122     1.25400
C49         C  0.20876856  0.01902902  0.04807797     0.87900
C50         C  0.29678111  0.01795854  0.95185246     0.87900
C51         C  0.20965278  0.01769053  0.95147500     0.87900
C52         C  0.29542480  0.01921512  0.04912489     0.88100
C53         C  0.11629991  0.00886063  0.80909010    -0.22300
C54         C  0.10784561  0.01102286  0.84558428     0.09700
C55         C  0.07684325  0.50324816  0.85318893     0.10100
C56         C  0.05285853  0.50204419  0.82681704    -0.17200
C57         C  0.06009827  0.00539979  0.79254777    -0.27600
C58         C  0.09282540  0.00668530  0.78227720     0.18400
C59         C  0.13365439  0.01250551  0.87270647     0.12400
C60         C  0.06878619  0.49441968  0.89143006    -0.12000
H61         H  0.02921551  0.49359938  0.83399530     0.12700
C62         C  0.10390560  0.00703590  0.74351087    -0.22800
H63         H  0.14142149  0.00915355  0.80148302     0.08300
C64         C  0.15785538  0.48947678  0.87205148     0.04700
C65         C  0.18139339  0.49107141  0.89898891    -0.20000
C66         C  0.18367770  0.01700240  0.92382830    -0.12300
C67         C  0.17228777  0.04410010  0.90616361     0.13400
C68         C  0.14736085  0.04135299  0.88099197    -0.22800
C69         C  0.15749397  0.46228885  0.84620244    -0.05800
H70         H  0.19929507  0.47292340  0.90034280     0.14900
C71         C  0.18615229  0.07603486  0.91292539    -0.16000
H72         H  0.13846217  0.06186154  0.86749140     0.09200
H73         H  0.11839353  0.98596865  0.73772751     0.07100
H74         H  0.11900820  0.02796696  0.73890264     0.08300
H75         H  0.08395235  0.00809332  0.72397957     0.07300
H76         H  0.07318984  0.51445686  0.90978320     0.02200
H77         H  0.08387057  0.47453302  0.89979639     0.02700
H78         H  0.04324367  0.48750073  0.89435808     0.06200
H79         H  0.17698848  0.44554779  0.85198477     0.05200
H80         H  0.16075348  0.47061175  0.81816164    -0.00600
H81         H  0.13426318  0.44975685  0.84836672     0.00900
H82         H  0.21217975  0.07607886  0.90659151     0.04500
H83         H  0.18207891  0.08305716  0.94143004     0.06500
H84         H  0.17479255  0.09393863  0.89576551     0.07300
C85         C  0.42005574  0.98401413  0.84963368    -0.22300
C86         C  0.40085744  0.01064454  0.84802051     0.09700
C87         C  0.38960840  0.50468927  0.80982277     0.10100
C88         C  0.41560336  0.50361231  0.78572234    -0.17200
C89         C  0.45128848  0.00153390  0.79801634    -0.27600
C90         C  0.44522659  0.97917496  0.82503552     0.18400
C91         C  0.37327140  0.01338981  0.87336933     0.12400
C92         C  0.35804642  0.49022154  0.79924319    -0.12000
H93         H  0.41174045  0.49302009  0.75953772     0.12700
C94         C  0.46567569  0.95057771  0.82869885    -0.22800
H95         H  0.41502458  0.96674319  0.87007724     0.08300
C96         C  0.36810162  0.49614348  0.89970568     0.04700
C97         C  0.32119538  0.99631521  0.89575858    -0.20000
C98         C  0.32291458  0.01764944  0.92454910    -0.12300
C99         C  0.35000551  0.03747620  0.92732600     0.13400
C100        C  0.37502817  0.03471961  0.90203190    -0.22800
C101        C  0.39418729  0.47211517  0.90209519    -0.05800
H102        H  0.34395199  0.47993166  0.94745566     0.14900
C103        C  0.35329995  0.06081146  0.95758697    -0.16000
H104        H  0.39625705  0.04912400  0.90475193     0.09200
H105        H  0.45933829  0.93716048  0.85321613     0.07100
H106        H  0.49132042  0.95735758  0.83064856     0.08300
H107        H  0.46210402  0.93496347  0.80519843     0.07300
H108        H  0.33900891  0.50818190  0.79954896     0.02200
H109        H  0.35161033  0.47155854  0.81853994     0.02700
H110        H  0.35900551  0.47981582  0.77176196     0.06200
H111        H  0.39052550  0.45638875  0.92539928     0.05200
H112        H  0.41779613  0.48374853  0.90530560    -0.00600
H113        H  0.39448587  0.45771620  0.87711849     0.00900
H114        H  0.35148213  0.04878247  0.98388489     0.04500
H115        H  0.33422502  0.07862435  0.95563550     0.06500
H116        H  0.37672064  0.07313071  0.95662706     0.07300
C117        C  0.11356574  0.02129709  0.18971510    -0.22300
C118        C  0.10544057  0.02542865  0.15346406     0.09700
C119        C  0.07151273  0.50073839  0.14514496     0.10100
C120        C  0.04771890  0.49837049  0.17182545    -0.17200
C121        C  0.05721491  0.01752946  0.20631796    -0.27600
C122        C  0.08989970  0.01810558  0.21636139     0.18400
C123        C  0.13147258  0.02475074  0.12600701     0.12400
C124        C  0.06320623  0.49364309  0.10643725    -0.10200
H125        H  0.02350858  0.49214719  0.16421597     0.12700
C126        C  0.10058560  0.01577572  0.25497263    -0.22800
H127        H  0.13861487  0.02010652  0.19722967     0.08300
C128        C  0.15342305  0.04949304  0.12190992     0.04700
C129        C  0.17843436  0.04676420  0.09657972    -0.20000
C130        C  0.18230208  0.01975285  0.07529064    -0.12300
C131        C  0.17285673  0.48308284  0.09701178     0.13400
C132        C  0.14773115  0.48343833  0.12232964    -0.22800
C133        C  0.15019793  0.07893017  0.14386557    -0.05800
H134        H  0.19518199  0.06589599  0.09354895     0.14900
C135        C  0.19137337  0.45325300  0.09236177    -0.16000
H136        H  0.14214012  0.46264609  0.13752781     0.09200
H137        H  0.11709838  0.03533803  0.26136098     0.07100
H138        H  0.11333171  0.99346777  0.25908419     0.08300
H139        H  0.08032028  0.01752643  0.27420306     0.07300
H140        H  0.07775846  0.47373632  0.09657628     0.02200
H141        H  0.06818960  0.51417700  0.08935450     0.02700
H142        H  0.03750449  0.48739311  0.10335704     0.06200
H143        H  0.16890994  0.09627570  0.13668998     0.05200
H144        H  0.15260741  0.07372209  0.17298946    -0.00600
H145        H  0.12638963  0.08951023  0.13898334     0.00900
H146        H  0.18310769  0.43499940  0.11133972     0.04500
H147        H  0.21712617  0.45741066  0.09770081     0.06500
H148        H  0.18808607  0.44389468  0.06466119     0.07300
C149        C  0.42009329  0.48245192  0.14452114    -0.22300
C150        C  0.39848061  0.01478202  0.15239981     0.09700
C151        C  0.39876401  0.03022610  0.18611132     0.10100
C152        C  0.42468240  0.02574454  0.20956928    -0.17200
C153        C  0.44992883  0.00580390  0.20018493    -0.27600
C154        C  0.44507571  0.47708160  0.16887374     0.18400
C155        C  0.37133515  0.01782818  0.12703372     0.12400
C156        C  0.37164165  0.05121021  0.19732726    -0.12000
H157        H  0.42485775  0.03714784  0.23573891     0.12700
C158        C  0.46764864  0.45062114  0.16067177    -0.22800
H159        H  0.41734787  0.46737342  0.12116084     0.08300
C160        C  0.37304134  0.03769595  0.09697888     0.04700
C161        C  0.34739010  0.03840965  0.07260053    -0.20000
C162        C  0.32016467  0.01959097  0.07754705    -0.12300
C163        C  0.31781741  0.00092284  0.10879089     0.13400
C164        C  0.34370780  0.99990337  0.13278121    -0.22800
C165        C  0.40194500  0.05804363  0.09067547    -0.05800
H166        H  0.34892302  0.05320659  0.04913189     0.14900
C167        C  0.28806052  0.98278779  0.11856792    -0.16000
H168        H  0.34226635  0.98514659  0.15633786     0.09200
H169        H  0.47881074  0.45419855  0.13376871     0.07100
H170        H  0.45408369  0.42836484  0.16025292     0.08300
H171        H  0.48728659  0.44854630  0.18048274     0.07300
H172        H  0.34892298  0.03773779  0.19838695     0.02200
H173        H  0.36917555  0.07034322  0.17758966     0.02700
H174        H  0.37575892  0.06168171  0.22438767     0.06200
H175        H  0.39926259  0.07245374  0.06613100     0.05200
H176        H  0.42314872  0.53183035  0.08232780    -0.00600
H177        H  0.40536734  0.07389729  0.11411940     0.00900
H178        H  0.29353915  0.95754625  0.11864762     0.04500
H179        H  0.26774582  0.98688653  0.10011330     0.06500
H180        H  0.27991436  0.98984791  0.14597023     0.07300
C181        C  0.47403998  0.36020284  0.40385462    -0.22300
C182        C  0.99846847  0.35955788  0.37805156     0.09700
C183        C  0.02233913  0.33655358  0.37985613     0.10100
C184        C  0.02034625  0.31390143  0.40671921    -0.17200
C185        C  0.49583097  0.31405558  0.43217035    -0.27600
C186        C  0.47246929  0.33795026  0.43127468     0.18400
C187        C  0.49993918  0.38481155  0.35097479     0.12400
C188        C  0.04966223  0.33566225  0.35318955    -0.12000
H189        H  0.03840419  0.29586263  0.40768843     0.12700
C190        C  0.44663581  0.34207625  0.45950511    -0.22800
H191        H  0.45620554  0.37846981  0.40292260     0.08300
C192        C  0.47902754  0.38471830  0.32139345     0.04700
C193        C  0.48003592  0.40946587  0.29694793    -0.20000
C194        C  0.50124604  0.43495091  0.30148588    -0.12300
C195        C  0.02331961  0.43339993  0.33094635     0.13400
C196        C  0.02176614  0.40854640  0.35514510    -0.22800
C197        C  0.45570043  0.35831525  0.31549977    -0.05800
H198        H  0.46393121  0.40816231  0.27452771     0.14900
C199        C  0.04898693  0.45741839  0.33864567    -0.16000
H200        H  0.03788764  0.40809735  0.37801225     0.09200
H201        H  0.42278350  0.33803684  0.44713719     0.07100
H202        H  0.44752627  0.36624203  0.47024287     0.08300
H203        H  0.44927428  0.32670253  0.48305075     0.07300
H204        H  0.06415826  0.35726115  0.35547206     0.02200
H205        H  0.04009883  0.33356185  0.32538132     0.02700
H206        H  0.06580443  0.31564302  0.35799687     0.06200
H207        H  0.44144096  0.36139989  0.29056887     0.05200
H208        H  0.43873817  0.35690886  0.33856477    -0.00600
H209        H  0.46897084  0.33605507  0.31307229     0.00900
H210        H  0.04478330  0.46785919  0.36572229     0.04500
H211        H  0.05038449  0.47658221  0.31916311     0.06500
H212        H  0.07278160  0.44593154  0.33856432     0.07300
C213        C  0.47306777  0.08427434  0.35197074    -0.22300
C214        C  0.99487445  0.10841615  0.34591632     0.09700
C215        C  0.01448346  0.10691292  0.31483240     0.10100
C216        C  0.01351671  0.08019670  0.29267204    -0.17200
C217        C  0.99301669  0.05514799  0.30062221    -0.27600
C218        C  0.47135719  0.05827086  0.32901864     0.18400
C219        C  0.49688383  0.13434879  0.37237400     0.12400
C220        C  0.03644778  0.13344299  0.30518458    -0.12000
H221        H  0.02970366  0.07840214  0.26982770     0.12700
C222        C  0.44492339  0.03501717  0.33587189    -0.22800
H223        H  0.45696751  0.08584922  0.37493901     0.08300
C224        C  0.47256918  0.15689263  0.37535287     0.04700
C225        C  0.47399799  0.17921466  0.40317546    -0.20000
C226        C  0.49915362  0.17971901  0.42840465    -0.12300
C227        C  0.02428807  0.15762522  0.42449117     0.13400
C228        C  0.02259643  0.13541108  0.39651436    -0.22800
C229        C  0.44529229  0.15762066  0.34888812    -0.05800
H230        H  0.45525388  0.19653862  0.40512788     0.14900
C231        C  0.05235319  0.15470979  0.44980225    -0.16000
H232        H  0.04108062  0.11781889  0.39422585     0.09200
H233        H  0.42157330  0.04729695  0.33706952     0.07100
H234        H  0.44900688  0.02330517  0.36203848     0.08300
H235        H  0.44281710  0.01720987  0.31427507     0.07300
H236        H  0.05427136  0.13721266  0.32691624     0.02200
H237        H  0.02219059  0.15496575  0.30170681     0.02700
H238        H  0.04965732  0.12881469  0.27965191     0.06200
H239        H  0.42879185  0.17731001  0.35441204     0.05200
H240        H  0.43118310  0.13575736  0.35049394    -0.00600
H241        H  0.45491667  0.16023267  0.32110614     0.00900
H242        H  0.05283249  0.13080275  0.46094147     0.04500
H243        H  0.05191621  0.17066857  0.47312146     0.06500
H244        H  0.07497475  0.15876072  0.43464755     0.07300
C245        C  0.46542740  0.35350153  0.61964426    -0.22300
C246        C  0.99474549  0.36393434  0.63300777     0.09700
C247        C  0.02302197  0.34845878  0.62270586     0.10100
C248        C  0.02122890  0.32337251  0.59843021    -0.17200
C249        C  0.99181602  0.31343953  0.58358888    -0.27600
C250        C  0.46346090  0.32848305  0.59511875     0.18400
C251        C  0.99573276  0.39281463  0.65502599     0.12400
C252        C  0.05522295  0.35907185  0.63642616    -0.12000
H253        H  0.04326195  0.31196353  0.59042443     0.12700
C254        C  0.43073238  0.31910228  0.58172940    -0.22800
H255        H  0.44383198  0.36559432  0.62792144     0.08300
C256        C  0.99237317  0.42204153  0.63882832     0.04700
C257        C  0.99362934  0.44893299  0.66023569    -0.20000
C258        C  0.99871381  0.44796796  0.69794759    -0.12300
C259        C  0.50142062  0.41801029  0.71403059     0.13400
C260        C  0.50037830  0.39116942  0.69213352    -0.22800
C261        C  0.98786146  0.42491978  0.59860789    -0.05800
H262        H  0.99000643  0.47046328  0.64634959     0.14900
C263        C  0.50521978  0.41244492  0.75398191    -0.16000
H264        H  0.50282775  0.36844408  0.70434668     0.09200
H265        H  0.41146087  0.33344971  0.59409394     0.07100
H266        H  0.42578353  0.29450091  0.58880853     0.08300
H267        H  0.42937172  0.32224196  0.55208964     0.07300
H268        H  0.05586192  0.35728135  0.66626000     0.02200
H269        H  0.05954420  0.38360559  0.62856010     0.02700
H270        H  0.07503172  0.34471796  0.62524030     0.06200
H271        H  0.98649316  0.44957190  0.59000381     0.05200
H272        H  0.96528712  0.41323885  0.59033913    -0.00600
H273        H  0.00834723  0.41396517  0.58422862     0.00900
H274        H  0.48555033  0.39705336  0.76349824     0.04500
H275        H  0.50444546  0.43356210  0.77096597     0.06500
H276        H  0.52844080  0.40070008  0.75888280     0.07300
C277        C  0.01993493  0.10924319  0.68960830    -0.22300
C278        C  0.49383305  0.11343559  0.66666425     0.09700
C279        C  0.46767170  0.09273909  0.66898569     0.10100
C280        C  0.47014093  0.06645344  0.69084618    -0.17200
C281        C  0.49834647  0.06018756  0.70992097    -0.27600
C282        C  0.02238472  0.08270490  0.71119907     0.18400
C283        C  0.49486748  0.13769884  0.63876687     0.12400
C284        C  0.43769227  0.09780562  0.64731764    -0.12000
H285        H  0.45069337  0.04966195  0.69138817     0.12700
C286        C  0.05251272  0.07908081  0.73290002    -0.22800
H287        H  0.03945913  0.12596044  0.68905728     0.08300
C288        C  0.48797520  0.16909025  0.64655841     0.04700
C289        C  0.48815072  0.19069651  0.61835776    -0.20000
C290        C  0.49530631  0.18138874  0.58289451    -0.12300
C291        C  0.00632717  0.15078527  0.57640219     0.13400
C292        C  0.00628022  0.12943881  0.60467022    -0.22800
C293        C  0.48026111  0.17957344  0.68441318    -0.05800
H294        H  0.48280134  0.21492054  0.62394841     0.14900
C295        C  0.01670559  0.13952952  0.53960709    -0.16000
H296        H  0.01406306  0.10575699  0.59960055     0.09200
H297        H  0.05493665  0.09901678  0.75189436     0.07100
H298        H  0.07361014  0.07871470  0.71455749     0.08300
H299        H  0.05282159  0.05763199  0.74887294     0.07300
H300        H  0.44341584  0.09728666  0.61806251     0.02200
H301        H  0.42716124  0.12071986  0.65445417     0.02700
H302        H  0.41940374  0.07955759  0.65262316     0.06200
H303        H  0.47524074  0.20490691  0.68575579     0.05200
H304        H  0.50085797  0.17469319  0.70233937    -0.00600
H305        H  0.45880971  0.16691837  0.69444664     0.00900
H306        H  0.04219311  0.13226884  0.54045880     0.04500
H307        H  0.01404913  0.15742755  0.51855911     0.06500
H308        H  0.00177299  0.11926975  0.53144221     0.07300
O309        O  0.46856873  0.71690549  0.52804451    -0.74200
O310        O  0.47529070  0.78008838  0.45605044    -0.74300
O311        O  0.47382678  0.71672141  0.45499815    -0.74300
O312        O  0.47047808  0.77966686  0.52903981    -0.74400
O313        O  0.02313599  0.77868510  0.53303826    -0.74300
O314        O  0.02668201  0.71649197  0.45858951    -0.74300
O315        O  0.02814042  0.77952509  0.46005460    -0.74300
O316        O  0.02168881  0.71579686  0.53164862    -0.74300
Ni317      Ni  0.47014953  0.74838053  0.49176843     1.25400
Ni318      Ni  0.02679604  0.74758866  0.49594884     1.25400
C319        C  0.99395940  0.70650161  0.54197605     0.87900
C320        C  0.50293120  0.79050583  0.44690516     0.87900
C321        C  0.50099932  0.70567611  0.44491563     0.87900
C322        C  0.99608468  0.78974634  0.54338709     0.88100
C323        C  0.50518119  0.96956012  0.27147292     0.86700
C324        C  0.47685295  0.97174950  0.24465853    -0.53600
C325        C  0.47220020  0.49095906  0.22798584     0.09600
C326        C  0.49859073  0.51431608  0.23805258     0.20600
C327        C  0.03385596  0.97814711  0.24793135    -0.54300
C328        C  0.02972033  0.49547692  0.23515513     0.09700
C329        C  0.49413886  0.49359395  0.29868976    -0.53800
C330        C  0.99395299  0.52003577  0.27928794     0.10300
H331        H  0.45946000  0.95373735  0.23886543     0.14800
H332        H  0.49843970  0.53579662  0.22156848     0.00500
H333        H  0.05437162  0.96290048  0.24459084     0.15100
H334        H  0.49162359  0.49392394  0.32786595     0.14900
C335        C  0.00444234  0.97131529  0.71980945     0.86700
C336        C  0.03440688  0.97432594  0.74342116    -0.53600
C337        C  0.03298961  0.50641484  0.76442702     0.09600
C338        C  0.00366312  0.52831015  0.76128041     0.20600
C339        C  0.47609651  0.97213560  0.74652470    -0.54300
C340        C  0.47386068  0.50789341  0.76942063     0.09700
C341        C  0.99996249  0.50944305  0.69961555    -0.53800
C342        C  0.50140751  0.53544842  0.72113733     0.10300
H343        H  0.05397271  0.95773409  0.74250211     0.14800
H344        H  0.00600354  0.54987130  0.77710503     0.00500
H345        H  0.45726171  0.95465653  0.74653280     0.15100
H346        H  0.99829135  0.51217230  0.67073979     0.14900
O347        O  0.21684901  0.53870142  0.03923077    -0.74200
O348        O  0.28242228  0.54254882  0.96614714    -0.74300
O349        O  0.21747705  0.54109159  0.96615359    -0.74300
O350        O  0.28213976  0.54052890  0.03924319    -0.74400
O351        O  0.28493351  0.99311971  0.03703596    -0.74300
O352        O  0.22054746  0.99198732  0.96363919    -0.74300
O353        O  0.28560595  0.99212773  0.96367373    -0.74300
O354        O  0.21992047  0.99304878  0.03656236    -0.74300
Ni355      Ni  0.24969061  0.54257186  0.00282616     1.25400
Ni356      Ni  0.25279925  0.99072017  0.00024164     1.25400
C357        C  0.20627582  0.51212798  0.04960996     0.87900
C358        C  0.29344141  0.51720947  0.95260255     0.87900
C359        C  0.20731954  0.51545355  0.95256977     0.87900
C360        C  0.29299285  0.51446416  0.05026219     0.88100
C361        C  0.11506642  0.51889905  0.80709899    -0.22300
C362        C  0.10829115  0.51188830  0.84321664     0.09700
C363        C  0.07524656  0.01193993  0.85568322     0.10100
C364        C  0.05169495  0.00884978  0.82901722    -0.17200
C365        C  0.05925094  0.51009651  0.79093087    -0.27600
C366        C  0.09107288  0.51758399  0.78066044     0.18400
C367        C  0.13451501  0.51305463  0.87012899     0.12400
C368        C  0.06539101  0.01616810  0.89452291    -0.12000
H369        H  0.02661322  0.00840860  0.83675218     0.12700
C370        C  0.10084773  0.52344976  0.74213246    -0.22800
H371        H  0.13937050  0.52500958  0.79940203     0.08300
C372        C  0.14511801  0.98547777  0.88943395     0.04700
C373        C  0.16973606  0.98803219  0.91493073    -0.20000
C374        C  0.18219299  0.51568635  0.92418839    -0.12300
C375        C  0.15855651  0.53928196  0.92216124     0.13400
C376        C  0.13523027  0.53768517  0.89500029    -0.22800
C377        C  0.13163616  0.95390591  0.87995065    -0.05800
H378        H  0.17810763  0.96708432  0.92789496     0.14900
C379        C  0.15674990  0.56559044  0.94918866    -0.16000
H380        H  0.11705016  0.55556327  0.89338809     0.09200
H381        H  0.11913927  0.50612549  0.73376684     0.07100
H382        H  0.11143214  0.54708782  0.73993251     0.08300
H383        H  0.08060711  0.52169442  0.72298396     0.07300
H384        H  0.07507705  0.03853520  0.90499682     0.02200
H385        H  0.07483025  0.99684491  0.91100694     0.02700
H386        H  0.03891246  0.01655858  0.89766308     0.06200
H387        H  0.14343348  0.93510193  0.89534644     0.05200
H388        H  0.13532216  0.94915624  0.85075781    -0.00600
H389        H  0.10560458  0.95312812  0.88607765     0.00900
H390        H  0.17822489  0.58072148  0.94676288     0.04500
H391        H  0.15503214  0.55611337  0.97692511     0.06500
H392        H  0.13542817  0.58045701  0.94477420     0.07300
C393        C  0.42289186  0.53273849  0.85231367    -0.22300
C394        C  0.39366182  0.51860778  0.84390081     0.09700
C395        C  0.40803724  0.03382666  0.82234685     0.10100
C396        C  0.43321898  0.02898582  0.79761619    -0.17200
C397        C  0.44624270  0.51546610  0.79480855    -0.27600
C398        C  0.44902620  0.53211499  0.82816346     0.18400
C399        C  0.36789557  0.51809095  0.87162154     0.12400
C400        C  0.38873181  0.06329214  0.82050268    -0.12000
H401        H  0.43837271  0.04637029  0.77733230     0.12700
C402        C  0.47837579  0.55008054  0.83927073    -0.22800
H403        H  0.42517556  0.54438166  0.87822055     0.08300
C404        C  0.34579751  0.99430767  0.86982850     0.04700
C405        C  0.34344992  0.49651460  0.92557915    -0.20000
C406        C  0.31829051  0.51811052  0.92388059    -0.12300
C407        C  0.31753951  0.53940333  0.89479559     0.13400
C408        C  0.34276972  0.53951567  0.86955952    -0.22800
C409        C  0.34216984  0.97224060  0.83834148    -0.05800
H410        H  0.30032725  0.98137397  0.89334294     0.14900
C411        C  0.28996448  0.56116921  0.88806850    -0.16000
H412        H  0.34243439  0.55594571  0.84751073     0.09200
H413        H  0.47664500  0.55875493  0.86750019     0.07100
H414        H  0.48098889  0.57095314  0.82211607     0.08300
H415        H  0.49979663  0.53532154  0.83781569     0.07300
H416        H  0.39114415  0.07661865  0.84608090     0.02200
H417        H  0.36309914  0.05753933  0.81599851     0.02700
H418        H  0.39696704  0.07849861  0.79818951     0.06200
H419        H  0.31872835  0.95994121  0.83896309     0.05200
H420        H  0.36133014  0.95444009  0.83881575    -0.00600
H421        H  0.34374175  0.98538914  0.81271511     0.00900
H422        H  0.29827205  0.58560961  0.89095897     0.04500
H423        H  0.26922395  0.55739760  0.90617466     0.06500
H424        H  0.28104246  0.55755617  0.86016475     0.07300
C425        C  0.11027297  0.51361528  0.19177544    -0.22300
C426        C  0.10307982  0.50865437  0.15526334     0.09700
C427        C  0.07279874  0.02769736  0.14380799     0.10100
C428        C  0.04899985  0.02368476  0.17039524    -0.17200
C429        C  0.05505445  0.50245841  0.20842058    -0.27600
C430        C  0.08662801  0.51052197  0.21857475     0.18400
C431        C  0.12937318  0.51010481  0.12834159     0.12400
C432        C  0.06313409  0.03386752  0.10543600    -0.10200
H433        H  0.02395975  0.02379463  0.16276556     0.12700
C434        C  0.09606275  0.51625689  0.25723944    -0.22800
H435        H  0.13459771  0.51955105  0.19942892     0.08300
C436        C  0.13632518  0.53741870  0.10903225     0.04700
C437        C  0.16153112  0.53734262  0.08375470    -0.20000
C438        C  0.18006076  0.51051595  0.07718916    -0.12300
C439        C  0.16010443  0.99490926  0.07964770     0.13400
C440        C  0.13512598  0.99782106  0.10495872    -0.22800
C441        C  0.11730985  0.56668266  0.11538640    -0.05800
H442        H  0.16655960  0.55839440  0.06884063     0.14900
C443        C  0.16181951  0.96547985  0.05738406    -0.16000
H444        H  0.11830980  0.97881244  0.10860710     0.09200
H445        H  0.10627143  0.54003218  0.25998175     0.07100
H446        H  0.11445303  0.49907571  0.26528499     0.08300
H447        H  0.07557421  0.51453857  0.27622205     0.07300
H448        H  0.07154355  0.01476469  0.08754360     0.02200
H449        H  0.07389217  0.05615415  0.09637090     0.02700
H450        H  0.03670311  0.03556629  0.10268528     0.06200
H451        H  0.12594337  0.58606529  0.09821097     0.05200
H452        H  0.11947487  0.57401690  0.14404137    -0.00600
H453        H  0.09167528  0.56251259  0.10913727     0.00900
H454        H  0.14152307  0.94950402  0.06330819     0.04500
H455        H  0.18424392  0.95278405  0.06344706     0.06500
H456        H  0.16087029  0.97118543  0.02824409     0.07300
C457        C  0.42407695  0.99541341  0.14270270    -0.22300
C458        C  0.39831533  0.50674449  0.15013332     0.09700
C459        C  0.40171199  0.52648266  0.18043337     0.10100
C460        C  0.42693743  0.52144770  0.20458285    -0.17200
C461        C  0.44822730  0.49664798  0.19956528    -0.27600
C462        C  0.44984190  0.99068624  0.16616540     0.18400
C463        C  0.37113383  0.51003714  0.12495657     0.12400
C464        C  0.37816220  0.55223173  0.18781456    -0.12000
H465        H  0.42939425  0.53623695  0.22822316     0.12700
C466        C  0.47650404  0.96959368  0.15362762    -0.22800
H467        H  0.42379194  0.98368197  0.11672097     0.08300
C468        C  0.37280324  0.52975576  0.09476292     0.04700
C469        C  0.34631406  0.53174112  0.07163163    -0.20000
C470        C  0.31847274  0.51408092  0.07780333    -0.12300
C471        C  0.31656766  0.49508118  0.10877766     0.13400
C472        C  0.34311324  0.49299808  0.13167145    -0.22800
C473        C  0.40278247  0.54801786  0.08651526    -0.05800
H474        H  0.34774186  0.54631251  0.04793215     0.14900
C475        C  0.28663609  0.47763112  0.11926936    -0.16000
H476        H  0.34182710  0.47824444  0.15524073     0.09200
H477        H  0.48685915  0.97866880  0.12813167     0.07100
H478        H  0.46680527  0.94588970  0.14859332     0.08300
H479        H  0.49627486  0.96776220  0.17332353     0.07300
H480        H  0.35372253  0.54231661  0.19099313     0.02200
H481        H  0.37819445  0.56889414  0.16511363     0.02700
H482        H  0.38415280  0.56527420  0.21286644     0.06200
H483        H  0.40011444  0.56218576  0.06178121     0.05200
H484        H  0.42362015  0.04342232  0.08721611    -0.00600
H485        H  0.40843868  0.56398252  0.10925515     0.00900
H486        H  0.29120040  0.45222525  0.11812683     0.04500
H487        H  0.26606464  0.48307124  0.10174646     0.06500
H488        H  0.27960678  0.48417397  0.14722338     0.07300
C489        C  0.48896808  0.86526973  0.39509928    -0.22300
C490        C  0.00932837  0.86070838  0.36445652     0.09700
C491        C  0.02819702  0.83362261  0.36232492     0.10100
C492        C  0.02579429  0.81133863  0.38979104    -0.17200
C493        C  0.50532439  0.81562768  0.42000262    -0.27600
C494        C  0.48683134  0.84314243  0.42259696     0.18400
C495        C  0.51105175  0.88583813  0.33805280     0.12400
C496        C  0.05062548  0.82822886  0.33102570    -0.12000
H497        H  0.03991134  0.79026309  0.38800576     0.12700
C498        C  0.46566278  0.85075379  0.45449595    -0.22800
H499        H  0.47480642  0.88633121  0.39697961     0.08300
C500        C  0.48837831  0.88758257  0.31026165     0.04700
C501        C  0.48807774  0.91371481  0.28777596    -0.20000
C502        C  0.50935486  0.93909191  0.29286653    -0.12300
C503        C  0.03301191  0.93583667  0.31935281     0.13400
C504        C  0.03344318  0.90926954  0.34113497    -0.22800
C505        C  0.46403600  0.86200050  0.30483110    -0.05800
H506        H  0.47035314  0.91381789  0.26683169     0.14900
C507        C  0.05835446  0.95994291  0.32776493    -0.16000
H508        H  0.05085997  0.90762507  0.36268511     0.09200
H509        H  0.44033284  0.85211567  0.44561955     0.07100
H510        H  0.47284966  0.87362996  0.46603113     0.08300
H511        H  0.46736672  0.83364577  0.47651493     0.07300
H512        H  0.06868111  0.84722037  0.32991426     0.02200
H513        H  0.03690583  0.82777315  0.30544698     0.02700
H514        H  0.06352957  0.80579402  0.33342856     0.06200
H515        H  0.44794582  0.86675176  0.28174235     0.05200
H516        H  0.44896866  0.85961985  0.32940478    -0.00600
H517        H  0.47648166  0.83966698  0.29944007     0.00900
H518        H  0.05591622  0.96757239  0.35631573     0.04500
H519        H  0.05732831  0.98091760  0.31110781     0.06500
H520        H  0.08245324  0.94954424  0.32386693     0.07300
C521        C  0.47052124  0.58559400  0.34270766    -0.22300
C522        C  0.99553612  0.60607572  0.33882805     0.09700
C523        C  0.01834946  0.60031531  0.31133131     0.10100
C524        C  0.01611024  0.57285722  0.29059730    -0.17200
C525        C  0.99148623  0.55117735  0.29664523    -0.27600
C526        C  0.46765014  0.55855526  0.32160075     0.18400
C527        C  0.49902583  0.63329202  0.36320870     0.12400
C528        C  0.04509854  0.62301824  0.30401097    -0.12000
H529        H  0.03444245  0.56764972  0.27067862     0.12700
C530        C  0.43826166  0.53859548  0.32701946    -0.22800
H531        H  0.45261448  0.59047876  0.36323119     0.08300
C532        C  0.47714124  0.65820819  0.36258991     0.04700
C533        C  0.47882743  0.68146813  0.38936109    -0.20000
C534        C  0.50191050  0.68062614  0.41692183    -0.12300
C535        C  0.02397757  0.65583968  0.41734058     0.13400
C536        C  0.02208215  0.63267153  0.39048590    -0.22800
C537        C  0.45222157  0.66046268  0.33344478    -0.05800
H538        H  0.46188778  0.70050985  0.38875064     0.14900
C539        C  0.04948187  0.65150693  0.44562148    -0.16000
H540        H  0.03873265  0.61336187  0.39099804     0.09200
H541        H  0.41647991  0.55303950  0.32368908     0.07100
H542        H  0.43831378  0.52884881  0.35467089     0.08300
H543        H  0.43651287  0.51922289  0.30725867     0.07300
H544        H  0.06065822  0.62532265  0.32807087     0.02200
H545        H  0.03489759  0.64609461  0.29740974     0.02700
H546        H  0.06029550  0.61535069  0.28097241     0.06200
H547        H  0.43778416  0.68200531  0.33617322     0.05200
H548        H  0.43555380  0.64035786  0.33482688    -0.00600
H549        H  0.46413055  0.66068243  0.30661337     0.00900
H550        H  0.04715696  0.62789190  0.45731334     0.04500
H551        H  0.04818749  0.66794691  0.46849651     0.06500
H552        H  0.07351338  0.65357963  0.43288167     0.07300
C553        C  0.47088634  0.85480394  0.60841505    -0.22300
C554        C  0.99977930  0.86165914  0.62527664     0.09700
C555        C  0.02614634  0.84202723  0.61899780     0.10100
C556        C  0.02375325  0.81841813  0.59286549    -0.17200
C557        C  0.99555102  0.81380322  0.57267141    -0.27600
C558        C  0.46841774  0.83114764  0.58218793     0.18400
C559        C  0.00235129  0.88931109  0.64910909     0.12400
C560        C  0.05710337  0.84657449  0.63916918    -0.12000
H561        H  0.04438906  0.80375659  0.58789564     0.12700
C562        C  0.43648557  0.82642959  0.56404942    -0.22800
H563        H  0.45029850  0.86923210  0.61461061     0.08300
C564        C  0.00753899  0.91902800  0.63463120     0.04700
C565        C  0.00903869  0.94485959  0.65778513    -0.20000
C566        C  0.00533635  0.94206882  0.69556588    -0.12300
C567        C  0.50393003  0.91135237  0.71037870     0.13400
C568        C  0.50174306  0.88548538  0.68708908    -0.22800
C569        C  0.01212886  0.92340871  0.59460001    -0.05800
H570        H  0.01410881  0.96693202  0.64555736     0.14900
C571        C  0.50538471  0.90414983  0.75014481    -0.16000
H572        H  0.50008331  0.86229354  0.69828009     0.09200
H573        H  0.41812215  0.84290628  0.57439847     0.07100
H574        H  0.42748508  0.80255028  0.56924160     0.08300
H575        H  0.43886691  0.83032448  0.53462304     0.07300
H576        H  0.05286143  0.84367927  0.66852832     0.02200
H577        H  0.06669691  0.87027304  0.63413419     0.02700
H578        H  0.07555478  0.82945996  0.63063431     0.06200
H579        H  0.01665542  0.94812303  0.58765460     0.05200
H580        H  0.99034622  0.91566097  0.57996208    -0.00600
H581        H  0.03296644  0.90954313  0.58513192     0.00900
H582        H  0.48295667  0.89220559  0.75851033     0.04500
H583        H  0.50874345  0.92459830  0.76778229     0.06500
H584        H  0.52591086  0.88842430  0.75522170     0.07300
C585        C  0.01792490  0.61325867  0.67713279    -0.22300
C586        C  0.49042028  0.61665262  0.65691944     0.09700
C587        C  0.46447399  0.59612010  0.66219581     0.10100
C588        C  0.46782842  0.57132496  0.68621771    -0.17200
C589        C  0.49650403  0.56665063  0.70515138    -0.27600
C590        C  0.02122381  0.58868903  0.70157043     0.18400
C591        C  0.49014435  0.63985662  0.62763183     0.12400
C592        C  0.43365067  0.59989899  0.64171811    -0.12000
H593        H  0.44861278  0.55443296  0.68878224     0.12700
C594        C  0.05203977  0.58663065  0.72220271    -0.22800
H595        H  0.03764213  0.62940394  0.67325864     0.08300
C596        C  0.48373569  0.67154239  0.63432982     0.04700
C597        C  0.48458963  0.69256372  0.60551022    -0.20000
C598        C  0.49166073  0.68244892  0.57032157    -0.12300
C599        C  0.99598508  0.65100865  0.56320859     0.13400
C600        C  0.99524799  0.62990338  0.59184494    -0.22800
C601        C  0.47595408  0.68301778  0.67178369    -0.05800
H602        H  0.48015403  0.71705787  0.61048840     0.14900
C603        C  0.00119500  0.63835938  0.52566114    -0.16000
H604        H  0.99902235  0.60535916  0.58643512     0.09200
H605        H  0.05606485  0.60866812  0.73731838     0.07100
H606        H  0.07228625  0.58294910  0.70314892     0.08300
H607        H  0.05179720  0.56767891  0.74207727     0.07300
H608        H  0.43821871  0.59765786  0.61231087     0.02200
H609        H  0.42335937  0.62318149  0.64755219     0.02700
H610        H  0.41562847  0.58204843  0.64942279     0.06200
H611        H  0.47118195  0.70841227  0.67226229     0.05200
H612        H  0.49637609  0.67837670  0.69003677    -0.00600
H613        H  0.45429992  0.67083217  0.68205465     0.00900
H614        H  0.02495767  0.62689815  0.52404448     0.04500
H615        H  0.00017251  0.65658266  0.50475003     0.06500
H616        H  0.98230515  0.62093355  0.51933089     0.07300
O617        O  0.96875395  0.21451029  0.54253571    -0.74200
O618        O  0.96844526  0.27656654  0.46916804    -0.74300
O619        O  0.97093461  0.21342582  0.46921567    -0.74300
O620        O  0.96665935  0.27721065  0.54216057    -0.74400
O621        O  0.52005446  0.27809986  0.54428498    -0.74300
O622        O  0.52408223  0.21616490  0.46942660    -0.74300
O623        O  0.52207555  0.27915643  0.47160652    -0.74300
O624        O  0.52211765  0.21527914  0.54268693    -0.74300
Ni625      Ni  0.96677963  0.24530136  0.50565300     1.25400
Ni626      Ni  0.52397362  0.24717899  0.50702621     1.25400
C627        C  0.49534354  0.20491863  0.55458470     0.87900
C628        C  0.99498100  0.28889464  0.45921074     0.87900
C629        C  0.99828451  0.20435950  0.45721068     0.87900
C630        C  0.49285222  0.28828808  0.55533089     0.88100
C631        C  0.99915559  0.46348656  0.27718384     0.86700
C632        C  0.97213563  0.46462311  0.24863521    -0.53600
C633        C  0.97413615  0.99982130  0.22728710     0.09600
C634        C  0.99997357  0.02339258  0.23851077     0.20600
C635        C  0.52985845  0.46889722  0.25452058    -0.54300
C636        C  0.53246323  0.00610150  0.23141611     0.09700
C637        C  0.99940797  0.99742259  0.29654730    -0.53800
C638        C  0.49761490  0.02560658  0.27975556     0.10300
H639        H  0.95381850  0.44722107  0.24430152     0.14800
H640        H  0.99802020  0.04609876  0.22459596     0.00500
H641        H  0.54966994  0.45258457  0.25378349     0.15100
H642        H  0.99848064  0.99507549  0.32568145     0.14900
C643        C  0.50085731  0.47848917  0.72049208     0.86700
C644        C  0.53154009  0.48091974  0.74283900    -0.53600
C645        C  0.53461963  0.99945790  0.76626488     0.09600
C646        C  0.50430765  0.01958347  0.76382857     0.20600
C647        C  0.97332861  0.48146914  0.74779356    -0.54300
C648        C  0.97588465  0.99634393  0.76982300     0.09700
C649        C  0.50210758  0.00331764  0.70104642    -0.53800
C650        C  0.00176986  0.02811098  0.72393108     0.10300
H651        H  0.55018083  0.46334126  0.74234070     0.14800
H652        H  0.50412653  0.04001060  0.78233810     0.00500
H653        H  0.95486908  0.46371669  0.74968786     0.15100
H654        H  0.49911839  0.00697734  0.67246493     0.14900
O655        O  0.71892110  0.04541105  0.03435484    -0.74200
O656        O  0.78678399  0.04403844  0.96433210    -0.74300
O657        O  0.72175885  0.04355232  0.96156752    -0.74300
O658        O  0.78391708  0.04586741  0.03723552    -0.74400
O659        O  0.78300048  0.48851177  0.03704114    -0.74300
O660        O  0.71878424  0.48958551  0.96328262    -0.74300
O661        O  0.78362754  0.49055317  0.96390992    -0.74300
O662        O  0.71805411  0.48723722  0.03623805    -0.74300
Ni663      Ni  0.75286209  0.04654890  0.99931092     1.25400
Ni664      Ni  0.75092648  0.48715546  0.00007208     1.25400
C665        C  0.70739897  0.01976363  0.04627370     0.87900
C666        C  0.79786698  0.01791027  0.95326222     0.87900
C667        C  0.71117240  0.01741426  0.94982139     0.87900
C668        C  0.79394145  0.02026823  0.05046735     0.88100
C669        C  0.61742747  0.00671751  0.80805828    -0.22300
C670        C  0.60937323  0.01149418  0.84433375     0.09700
C671        C  0.57701827  0.50313016  0.85346036     0.10100
C672        C  0.55305134  0.50166769  0.82707559    -0.17200
C673        C  0.56103424  0.00587331  0.79191140    -0.27600
C674        C  0.59374428  0.00484036  0.78148337     0.18400
C675        C  0.63544707  0.01262257  0.87116294     0.12400
C676        C  0.56914645  0.49394279  0.89162897    -0.12000
H677        H  0.52955662  0.49279506  0.83418632     0.12700
C678        C  0.60472735  0.00321028  0.74271009    -0.22800
H679        H  0.64246377  0.00491507  0.80037014     0.08300
C680        C  0.65790732  0.49000962  0.87223219     0.04700
C681        C  0.68144054  0.49149047  0.89917626    -0.20000
C682        C  0.68588066  0.01642675  0.92164103    -0.12300
C683        C  0.67995523  0.04155077  0.89790680     0.13400
C684        C  0.65457898  0.03934265  0.87326891    -0.22800
C685        C  0.65758278  0.46296245  0.84618641    -0.05800
H686        H  0.69931405  0.47331104  0.90045827     0.14900
C687        C  0.70062747  0.07037961  0.89729344    -0.16000
H688        H  0.64963883  0.05853121  0.85533537     0.09200
H689        H  0.61736492  0.98091002  0.73771693     0.07100
H690        H  0.62153746  0.02272758  0.73729495     0.08300
H691        H  0.58491871  0.00545616  0.72314857     0.07300
H692        H  0.57326012  0.51394003  0.91013057     0.02200
H693        H  0.58456442  0.47424108  0.89981401     0.02700
H694        H  0.54372123  0.48661586  0.89452710     0.06200
H695        H  0.67711165  0.44622351  0.85182948     0.05200
H696        H  0.66081455  0.47145731  0.81820992    -0.00600
H697        H  0.63437500  0.45038047  0.84826231     0.00900
H698        H  0.72610058  0.06382185  0.89311406     0.04500
H699        H  0.69790345  0.08357160  0.92292690     0.06500
H700        H  0.69383559  0.08623873  0.87509361     0.07300
C701        C  0.91869088  0.98279730  0.84858764    -0.22300
C702        C  0.90086828  0.01033449  0.84845823     0.09700
C703        C  0.88979168  0.50384945  0.81001803     0.10100
C704        C  0.91571276  0.50293701  0.78583433    -0.17200
C705        C  0.95080463  0.00086265  0.79791362    -0.27600
C706        C  0.94358081  0.97773109  0.82372798     0.18400
C707        C  0.87358561  0.01329732  0.87413696     0.12400
C708        C  0.85839314  0.48889508  0.79971352    -0.12000
H709        H  0.91185937  0.49216404  0.75975026     0.12700
C710        C  0.96256142  0.94808002  0.82610483    -0.22800
H711        H  0.91281635  0.96501133  0.86814418     0.08300
C712        C  0.86816576  0.49565999  0.89968762     0.04700
C713        C  0.82107228  0.99734996  0.89624316    -0.20000
C714        C  0.82404099  0.01727108  0.92618702    -0.12300
C715        C  0.85213906  0.03549416  0.93008780     0.13400
C716        C  0.87662862  0.03313793  0.90409196    -0.22800
C717        C  0.89421677  0.47159875  0.90209024    -0.05800
H718        H  0.84397993  0.47952392  0.94744641     0.14900
C719        C  0.85710654  0.05629842  0.96244978    -0.16000
H720        H  0.89854669  0.04641961  0.90744594     0.09200
H721        H  0.95569284  0.93428556  0.85016094     0.07100
H722        H  0.98852394  0.95354579  0.82809784     0.08300
H723        H  0.95801945  0.93325746  0.80215497     0.07300
H724        H  0.83910956  0.50660702  0.79992221     0.02200
H725        H  0.85227703  0.47029945  0.81922483     0.02700
H726        H  0.85940405  0.47829050  0.77233590     0.06200
H727        H  0.89054401  0.45590021  0.92541778     0.05200
H728        H  0.91784317  0.48320913  0.90525624    -0.00600
H729        H  0.89447950  0.45717323  0.87713353     0.00900
H730        H  0.85524238  0.04233375  0.98742978     0.04500
H731        H  0.83883805  0.07497399  0.96297285     0.06500
H732        H  0.88107364  0.06760588  0.96204223     0.07300
C733        C  0.61331495  0.02100850  0.18759368    -0.22300
C734        C  0.60434252  0.02538069  0.15163781     0.09700
C735        C  0.57165090  0.50079381  0.14467140     0.10100
C736        C  0.54780516  0.49815736  0.17126122    -0.17200
C737        C  0.55739712  0.01695049  0.20569229    -0.27600
C738        C  0.59027356  0.01757179  0.21486601     0.18400
C739        C  0.62974864  0.02516601  0.12353730     0.12400
C740        C  0.56357919  0.49350645  0.10594604    -0.10200
H741        H  0.52372558  0.49151849  0.16358488     0.12700
C742        C  0.60182454  0.01525409  0.25316261    -0.22800
H743        H  0.63853732  0.01993078  0.19438308     0.08300
C744        C  0.65125849  0.05021066  0.11916327     0.04700
C745        C  0.67623531  0.04769133  0.09381136    -0.20000
C746        C  0.68043061  0.02061302  0.07274813    -0.12300
C747        C  0.67319578  0.48350722  0.09731705     0.13400
C748        C  0.64795392  0.48395226  0.12247768    -0.22800
C749        C  0.64764799  0.07969311  0.14095552    -0.05800
H750        H  0.69280627  0.06696304  0.09074580     0.14900
C751        C  0.69177835  0.45368443  0.09297953    -0.16000
H752        H  0.64233442  0.46323305  0.13779630     0.09200
H753        H  0.61803210  0.03513053  0.25924200     0.07100
H754        H  0.61516781  0.99320872  0.25674595     0.08300
H755        H  0.58197043  0.01642512  0.27298270     0.07300
H756        H  0.57845045  0.47378614  0.09619123     0.02200
H757        H  0.56832227  0.51408051  0.08884084     0.02700
H758        H  0.53797902  0.48690514  0.10277012     0.06200
H759        H  0.66603996  0.09728988  0.13356730     0.05200
H760        H  0.65025005  0.07466014  0.17010042    -0.00600
H761        H  0.62364557  0.08987657  0.13612257     0.00900
H762        H  0.68347664  0.43552667  0.11206184     0.04500
H763        H  0.71749750  0.45791805  0.09840600     0.06500
H764        H  0.68860952  0.44415760  0.06533830     0.07300
C765        C  0.92065748  0.48255041  0.14455592    -0.22300
C766        C  0.89690124  0.01580486  0.15359903     0.09700
C767        C  0.89786751  0.03138192  0.18720166     0.10100
C768        C  0.92401034  0.02657859  0.21027177    -0.17200
C769        C  0.94891829  0.00635192  0.20049230    -0.27600
C770        C  0.94551720  0.47717718  0.16905889     0.18400
C771        C  0.86951325  0.01916373  0.12863141     0.12400
C772        C  0.87126999  0.05290061  0.19865445    -0.12000
H773        H  0.92465980  0.03801446  0.23641045     0.12700
C774        C  0.96812978  0.45071769  0.16098620    -0.22800
H775        H  0.91806616  0.46751286  0.12113779     0.08300
C776        C  0.87108344  0.03921296  0.09873772     0.04700
C777        C  0.84535333  0.04005163  0.07450616    -0.20000
C778        C  0.81827387  0.02102364  0.07929366    -0.12300
C779        C  0.81600822  0.00218789  0.11040411     0.13400
C780        C  0.84191160  0.00118683  0.13439225    -0.22800
C781        C  0.90002869  0.05946705  0.09229249    -0.05800
H782        H  0.84681610  0.05495038  0.05111288     0.14900
C783        C  0.78638906  0.98373707  0.11991177    -0.16000
H784        H  0.84057786  0.98627934  0.15782490     0.09200
H785        H  0.97941675  0.45429426  0.13414976     0.07100
H786        H  0.95456349  0.42846259  0.16048760     0.08300
H787        H  0.98767637  0.44863361  0.18090952     0.07300
H788        H  0.84830517  0.03985201  0.20006320     0.02200
H789        H  0.86897485  0.07200051  0.17884334     0.02700
H790        H  0.87587248  0.06340819  0.22559459     0.06200
H791        H  0.89723875  0.07399478  0.06785720     0.05200
H792        H  0.92361269  0.53229160  0.08256560    -0.00600
H793        H  0.90370065  0.07520062  0.11579193     0.00900
H794        H  0.79208043  0.95853827  0.11972950     0.04500
H795        H  0.76609200  0.98783735  0.10142286     0.06500
H796        H  0.77812158  0.99050905  0.14736378     0.07300
C797        C  0.97348785  0.35984233  0.40338711    -0.22300
C798        C  0.49891195  0.36001117  0.37838374     0.09700
C799        C  0.52278767  0.33698453  0.37997329     0.10100
C800        C  0.52084289  0.31416900  0.40668073    -0.17200
C801        C  0.99529516  0.31392968  0.43215577    -0.27600
C802        C  0.97186142  0.33774345  0.43096826     0.18400
C803        C  0.99972662  0.38437071  0.35070809     0.12400
C804        C  0.55003823  0.33621700  0.35320634    -0.12000
H805        H  0.53887888  0.29610192  0.40746008     0.12700
C806        C  0.94591294  0.34196449  0.45904202    -0.22800
H807        H  0.95564344  0.37809054  0.40225276     0.08300
C808        C  0.97916731  0.38425043  0.32082502     0.04700
C809        C  0.98023409  0.40914554  0.29659535    -0.20000
C810        C  0.00117658  0.43476953  0.30164582    -0.12300
C811        C  0.52359707  0.43364217  0.33059858     0.13400
C812        C  0.52214143  0.40890673  0.35498276    -0.22800
C813        C  0.95617827  0.35766379  0.31438950    -0.05800
H814        H  0.96443881  0.40781948  0.27388907     0.14900
C815        C  0.54937927  0.45763099  0.33793475    -0.16000
H816        H  0.53847039  0.40849364  0.37766166     0.09200
H817        H  0.92210924  0.33794197  0.44654849     0.07100
H818        H  0.94679811  0.36615080  0.46971943     0.08300
H819        H  0.94840820  0.32661261  0.48262515     0.07300
H820        H  0.56457243  0.35778195  0.35561407     0.02200
H821        H  0.54040114  0.33429631  0.32541434     0.02700
H822        H  0.56616651  0.31614915  0.35779889     0.06200
H823        H  0.94214901  0.36077788  0.28929734     0.05200
H824        H  0.93900265  0.35593363  0.33722335    -0.00600
H825        H  0.96970716  0.33555233  0.31193963     0.00900
H826        H  0.54541137  0.46816481  0.36500825     0.04500
H827        H  0.55065457  0.47674492  0.31837930     0.06500
H828        H  0.57314887  0.44609630  0.33766373     0.07300
C829        C  0.97339965  0.08407597  0.35295604    -0.22300
C830        C  0.49503290  0.10836912  0.34571538     0.09700
C831        C  0.51530288  0.10677883  0.31516108     0.10100
C832        C  0.51455332  0.08012591  0.29288107    -0.17200
C833        C  0.49359127  0.05529526  0.30018303    -0.27600
C834        C  0.97148731  0.05794227  0.33019604     0.18400
C835        C  0.99693246  0.13458413  0.37231038     0.12400
C836        C  0.53769609  0.13315454  0.30618453    -0.12000
H837        H  0.53122795  0.07818777  0.27049603     0.12700
C838        C  0.94553765  0.03441963  0.33807873    -0.22800
H839        H  0.95780897  0.08558403  0.37637200     0.08300
C840        C  0.97266671  0.15716681  0.37529371     0.04700
C841        C  0.97417565  0.17953211  0.40307193    -0.20000
C842        C  0.99945110  0.18012793  0.42815997    -0.12300
C843        C  0.52381242  0.15702865  0.42504540     0.13400
C844        C  0.52234540  0.13498616  0.39687217    -0.22800
C845        C  0.94533609  0.15784081  0.34890503    -0.05800
H846        H  0.95537945  0.19679652  0.40512486     0.14900
C847        C  0.55133409  0.15372881  0.45102686    -0.16000
H848        H  0.54077367  0.11732860  0.39472117     0.09200
H849        H  0.92209888  0.04645361  0.34023647     0.07100
H850        H  0.95057455  0.02274829  0.36405771     0.08300
H851        H  0.94291505  0.01662119  0.31655304     0.07300
H852        H  0.55512498  0.13670902  0.32836123     0.02200
H853        H  0.52370701  0.15481002  0.30244724     0.02700
H854        H  0.55135829  0.12849690  0.28096190     0.06200
H855        H  0.92883093  0.17752477  0.35443908     0.05200
H856        H  0.93127657  0.13594882  0.35057643    -0.00600
H857        H  0.95490603  0.16043250  0.32109510     0.00900
H858        H  0.55166900  0.12961661  0.46157487     0.04500
H859        H  0.55016169  0.16919911  0.47478827     0.06500
H860        H  0.57426687  0.15815734  0.43663057     0.07300
C861        C  0.96521364  0.35347872  0.61979487    -0.22300
C862        C  0.49494359  0.36406108  0.63280786     0.09700
C863        C  0.52321211  0.34844773  0.62270142     0.10100
C864        C  0.52145887  0.32338066  0.59835626    -0.17200
C865        C  0.49206798  0.31342392  0.58348197    -0.27600
C866        C  0.96323296  0.32860517  0.59509183     0.18400
C867        C  0.49587017  0.39296806  0.65488724     0.12400
C868        C  0.55536344  0.35881239  0.63679984    -0.12000
H869        H  0.54349173  0.31194884  0.59039537     0.12700
C870        C  0.93055015  0.31959710  0.58123712    -0.22800
H871        H  0.94364345  0.36562158  0.62806060     0.08300
C872        C  0.49209686  0.42223021  0.63884515     0.04700
C873        C  0.49327299  0.44910398  0.66035256    -0.20000
C874        C  0.49864142  0.44808977  0.69801992    -0.12300
C875        C  0.00132078  0.41792149  0.71408954     0.13400
C876        C  0.00010036  0.39104229  0.69228970    -0.22800
C877        C  0.48719117  0.42517679  0.59869519    -0.05800
H878        H  0.48927607  0.47065699  0.64663795     0.14900
C879        C  0.00517020  0.41243173  0.75405566    -0.16000
H880        H  0.00237261  0.36832458  0.70456920     0.09200
H881        H  0.91131209  0.33413041  0.59337139     0.07100
H882        H  0.92524019  0.29503571  0.58816639     0.08300
H883        H  0.92955921  0.32281755  0.55158715     0.07300
H884        H  0.55574641  0.35689652  0.66662976     0.02200
H885        H  0.55991534  0.38334675  0.62910603     0.02700
H886        H  0.57516334  0.34436257  0.62576228     0.06200
H887        H  0.48553303  0.44984111  0.59020616     0.05200
H888        H  0.46463686  0.41334557  0.59064348    -0.00600
H889        H  0.50763417  0.41441956  0.58403825     0.00900
H890        H  0.98537333  0.39725651  0.76370363     0.04500
H891        H  0.00469735  0.43359723  0.77097060     0.06500
H892        H  0.02828286  0.40047356  0.75891584     0.07300
C893        C  0.52104345  0.10860561  0.68780767    -0.22300
C894        C  0.99371777  0.11338758  0.66675868     0.09700
C895        C  0.96815882  0.09191841  0.66723032     0.10100
C896        C  0.97028248  0.06564306  0.68914199    -0.17200
C897        C  0.99767362  0.06003285  0.70995674    -0.27600
C898        C  0.52375942  0.08210972  0.70940388     0.18400
C899        C  0.99531792  0.13783950  0.63912779     0.12400
C900        C  0.93933656  0.09608526  0.64340888    -0.12000
H901        H  0.95133188  0.04832954  0.68833853     0.12700
C902        C  0.55477240  0.07764564  0.72923412    -0.22800
H903        H  0.54103522  0.12471100  0.68585805     0.08300
C904        C  0.98489953  0.16843980  0.64599875     0.04700
C905        C  0.98510593  0.18999168  0.61774213    -0.20000
C906        C  0.99569079  0.18141774  0.58311014    -0.12300
C907        C  0.50245866  0.14998077  0.57522755     0.13400
C908        C  0.50235820  0.12854109  0.60339576    -0.22800
C909        C  0.97345152  0.17811388  0.68293856    -0.05800
H910        H  0.97709615  0.21361554  0.62265321     0.14900
C911        C  0.50950625  0.13817851  0.53766511    -0.16000
H912        H  0.50762616  0.10431512  0.59766251     0.09200
H913        H  0.55878708  0.09759811  0.74785836     0.07100
H914        H  0.57492103  0.07649229  0.70962220     0.08300
H915        H  0.55509458  0.05627189  0.74537268     0.07300
H916        H  0.94679376  0.09593545  0.61463648     0.02200
H917        H  0.92758038  0.11857800  0.64983819     0.02700
H918        H  0.92145080  0.07719706  0.64724779     0.06200
H919        H  0.96608765  0.20290835  0.68367284     0.05200
H920        H  0.99299710  0.17494217  0.70278930    -0.00600
H921        H  0.95254971  0.16366187  0.69096935     0.00900
H922        H  0.53410388  0.12845052  0.53661380     0.04500
H923        H  0.50764011  0.15649538  0.51696650     0.06500
H924        H  0.49212596  0.11955500  0.53048292     0.07300
O925        O  0.96832729  0.71743584  0.52821946    -0.74200
O926        O  0.97486526  0.78031425  0.45573746    -0.74300
O927        O  0.97345981  0.71693439  0.45520034    -0.74300
O928        O  0.97006331  0.78021101  0.52873955    -0.74400
O929        O  0.52351876  0.77801464  0.53346782    -0.74300
O930        O  0.52704621  0.71627564  0.45845145    -0.74300
O931        O  0.52855825  0.77930310  0.46048959    -0.74300
O932        O  0.52192482  0.71510323  0.53147989    -0.74300
Ni933      Ni  0.96978612  0.74875987  0.49171304     1.25400
Ni934      Ni  0.52714624  0.74712837  0.49608895     1.25400
C935        C  0.49415966  0.70585689  0.54175084     0.87900
C936        C  0.00250232  0.79065081  0.44641494     0.87900
C937        C  0.00061347  0.70582388  0.44517757     0.87900
C938        C  0.49648348  0.78910878  0.54383173     0.88100
C939        C  0.00457687  0.96954153  0.27105165     0.86700
C940        C  0.97621675  0.97184873  0.24430004    -0.53600
C941        C  0.97232983  0.49099521  0.22834140     0.09600
C942        C  0.99867822  0.51433589  0.23858055     0.20600
C943        C  0.53449405  0.97795448  0.24823460    -0.54300
C944        C  0.52960508  0.49544744  0.23454248     0.09700
C945        C  0.99402240  0.49346985  0.29914113    -0.53800
C946        C  0.49404269  0.52010386  0.27875913     0.10300
H947        H  0.95875802  0.95387159  0.23860682     0.14800
H948        H  0.99856717  0.53584275  0.22214271     0.00500
H949        H  0.55492247  0.96260165  0.24487885     0.15100
H950        H  0.99137470  0.49371235  0.32830283     0.14900
C951        C  0.50452325  0.97143849  0.71993877     0.86700
C952        C  0.53459037  0.97439733  0.74342664    -0.53600
C953        C  0.53299725  0.50638253  0.76477223     0.09600
C954        C  0.50374953  0.52835545  0.76157151     0.20600
C955        C  0.97582900  0.97182918  0.74615239    -0.54300
C956        C  0.97385575  0.50775499  0.76925796     0.09700
C957        C  0.50016686  0.50957926  0.69985185    -0.53800
C958        C  0.00117845  0.53533403  0.72082921     0.10300
H959        H  0.55402223  0.95766444  0.74245789     0.14800
H960        H  0.50606786  0.54988330  0.77746696     0.00500
H961        H  0.95692758  0.95443891  0.74564923     0.15100
H962        H  0.49864191  0.51231200  0.67096440     0.14900
O963        O  0.71738735  0.53885325  0.03942553    -0.74200
O964        O  0.78273060  0.54235109  0.96607784    -0.74300
O965        O  0.71778468  0.54126448  0.96635848    -0.74300
O966        O  0.78269567  0.54036601  0.03915755    -0.74400
O967        O  0.78387377  0.99401144  0.03840398    -0.74300
O968        O  0.72159796  0.99185819  0.96284037    -0.74300
O969        O  0.78648149  0.99219886  0.96512753    -0.74300
O970        O  0.71897451  0.99370901  0.03562204    -0.74300
Ni971      Ni  0.75012973  0.54256178  0.00289081     1.25400
Ni972      Ni  0.75278968  0.99109780  0.00055579     1.25400
C973        C  0.70668777  0.51233085  0.04981902     0.87900
C974        C  0.79358232  0.51694399  0.95253194     0.87900
C975        C  0.70746300  0.51568240  0.95279622     0.87900
C976        C  0.79346797  0.51425984  0.05014201     0.88100
C977        C  0.61492315  0.51978609  0.80752718    -0.22300
C978        C  0.60829194  0.51240431  0.84357400     0.09700
C979        C  0.57700112  0.01569538  0.85430954     0.10100
C980        C  0.55311492  0.01218757  0.82805450    -0.17200
C981        C  0.55927432  0.51010074  0.79126912    -0.27600
C982        C  0.59095153  0.51821745  0.78107452     0.18400
C983        C  0.63456227  0.51358618  0.87043306     0.12400
C984        C  0.56774637  0.02455353  0.89234449    -0.12000
H985        H  0.52812992  0.01389022  0.83591216     0.12700
C986        C  0.60062985  0.52443658  0.74259957    -0.22800
H987        H  0.63912077  0.52632926  0.79988126     0.08300
C988        C  0.64232282  0.98691179  0.89314709     0.04700
C989        C  0.66707031  0.98928821  0.91849596    -0.20000
C990        C  0.68230827  0.51605059  0.92443776    -0.12300
C991        C  0.65875713  0.53973695  0.92243739     0.13400
C992        C  0.63533628  0.53817868  0.89535809    -0.22800
C993        C  0.62433826  0.95661327  0.88899137    -0.05800
H994        H  0.67169729  0.96971412  0.93595160     0.14900
C995        C  0.65718476  0.56613261  0.94936798    -0.16000
H996        H  0.61716284  0.55607018  0.89382475     0.09200
H997        H  0.61921394  0.50745052  0.73412189     0.07100
H998        H  0.61083820  0.54824080  0.74057824     0.08300
H999        H  0.58041491  0.52244633  0.72344073     0.07300
H1000       H  0.57940455  0.04694284  0.89972724     0.02200
H1001       H  0.57545025  0.00648796  0.91158573     0.02700
H1002       H  0.54142435  0.02746257  0.89526522     0.06200
H1003       H  0.63324700  0.93867481  0.90784628     0.05200
H1004       H  0.62741188  0.94761894  0.86105542    -0.00600
H1005       H  0.59845017  0.95994958  0.89441568     0.00900
H1006       H  0.67875682  0.58111931  0.94681280     0.04500
H1007       H  0.65547679  0.55675177  0.97714856     0.06500
H1008       H  0.63595458  0.58112163  0.94495233     0.07300
C1009       C  0.92282261  0.53264237  0.85209875    -0.22300
C1010       C  0.89375862  0.51809363  0.84391488     0.09700
C1011       C  0.90920181  0.03417920  0.82407351     0.10100
C1012       C  0.93411963  0.02914630  0.79906326    -0.17200
C1013       C  0.94623702  0.51520985  0.79469402    -0.27600
C1014       C  0.94889853  0.53216109  0.82786210     0.18400
C1015       C  0.86800447  0.51760956  0.87161331     0.12400
C1016       C  0.89144454  0.06460568  0.82391339    -0.12000
H1017       H  0.94016289  0.04710863  0.77978479     0.12700
C1018       C  0.97799370  0.55067388  0.83862351    -0.22800
H1019       H  0.92500561  0.54453579  0.87786559     0.08300
C1020       C  0.84538839  0.99531281  0.87002955     0.04700
C1021       C  0.84350615  0.49607922  0.92554105    -0.20000
C1022       C  0.81837981  0.51770574  0.92378433    -0.12300
C1023       C  0.81762655  0.53893409  0.89464892     0.13400
C1024       C  0.84288132  0.53902521  0.86946100    -0.22800
C1025       C  0.84074635  0.97424734  0.83779625    -0.05800
H1026       H  0.79949508  0.98347480  0.89324093     0.14900
C1027       C  0.79001400  0.56063143  0.88782699    -0.16000
H1028       H  0.84256014  0.55541295  0.84736952     0.09200
H1029       H  0.97614404  0.55971744  0.86668998     0.07100
H1030       H  0.98028803  0.57133717  0.82107649     0.08300
H1031       H  0.99964269  0.53620663  0.83744547     0.07300
H1032       H  0.89444919  0.07668846  0.85022350     0.02200
H1033       H  0.86557045  0.06030237  0.81906003     0.02700
H1034       H  0.90052611  0.08034149  0.80251813     0.06200
H1035       H  0.81685364  0.96278729  0.83817146     0.05200
H1036       H  0.85916454  0.95571444  0.83750941    -0.00600
H1037       H  0.84271527  0.98799247  0.81263764     0.00900
H1038       H  0.79827107  0.58509403  0.89063327     0.04500
H1039       H  0.76927885  0.55686497  0.90594812     0.06500
H1040       H  0.78110865  0.55692345  0.85993175     0.07300
C1041       C  0.61001281  0.51454418  0.19139795    -0.22300
C1042       C  0.60305880  0.50920144  0.15489673     0.09700
C1043       C  0.57152578  0.02764295  0.14289420     0.10100
C1044       C  0.54836473  0.02333237  0.17007115    -0.17200
C1045       C  0.55494112  0.50255664  0.20786194    -0.27600
C1046       C  0.58631163  0.51126224  0.21810054     0.18400
C1047       C  0.62949285  0.51060333  0.12815379     0.12400
C1048       C  0.56101799  0.03423774  0.10490782    -0.10200
H1049       H  0.52316644  0.02354145  0.16314810     0.12700
C1050       C  0.59546971  0.51747345  0.25675513    -0.22800
H1051       H  0.63420978  0.52089270  0.19912783     0.08300
C1052       C  0.63646970  0.53782109  0.10867792     0.04700
C1053       C  0.66182570  0.53767061  0.08359453    -0.20000
C1054       C  0.68043718  0.51084671  0.07734559    -0.12300
C1055       C  0.65834020  0.99566042  0.07692924     0.13400
C1056       C  0.63342939  0.99833743  0.10233211    -0.22800
C1057       C  0.61728622  0.56704172  0.11459834    -0.05800
H1058       H  0.66687279  0.55864069  0.06853449     0.14900
C1059       C  0.66015187  0.96635048  0.05444795    -0.16000
H1060       H  0.61680898  0.97917815  0.10606063     0.09200
H1061       H  0.60513245  0.54147671  0.25931199     0.07100
H1062       H  0.61421001  0.50074789  0.26505763     0.08300
H1063       H  0.57495627  0.51544683  0.27566075     0.07300
H1064       H  0.56915999  0.01540086  0.08648168     0.02200
H1065       H  0.57146877  0.05669164  0.09594296     0.02700
H1066       H  0.53452464  0.03584374  0.10289420     0.06200
H1067       H  0.62595072  0.58634132  0.09731612     0.05200
H1068       H  0.61922160  0.57458044  0.14320431    -0.00600
H1069       H  0.59171563  0.56271100  0.10816024     0.00900
H1070       H  0.63977144  0.95039155  0.06006576     0.04500
H1071       H  0.68248659  0.95354700  0.06060387     0.06500
H1072       H  0.65943017  0.97223271  0.02534403     0.07300
C1073       C  0.92217098  0.99619347  0.14347661    -0.22300
C1074       C  0.89875992  0.50674492  0.15013142     0.09700
C1075       C  0.90190110  0.52637705  0.18055995     0.10100
C1076       C  0.92706382  0.52140015  0.20480858    -0.17200
C1077       C  0.94847773  0.49669918  0.19981054    -0.27600
C1078       C  0.94826768  0.99132853  0.16643180     0.18400
C1079       C  0.87163422  0.50993828  0.12486686     0.12400
C1080       C  0.87811307  0.55190691  0.18799978    -0.12000
H1081       H  0.92934558  0.53612036  0.22852925     0.12700
C1082       C  0.97475434  0.97031823  0.15325600    -0.22800
H1083       H  0.92143438  0.98448389  0.11749389     0.08300
C1084       C  0.87323762  0.52974866  0.09475129     0.04700
C1085       C  0.84678791  0.53161099  0.07153978    -0.20000
C1086       C  0.81902050  0.51380427  0.07761427    -0.12300
C1087       C  0.81717649  0.49474607  0.10854565     0.13400
C1088       C  0.84371042  0.49272354  0.13145627    -0.22800
C1089       C  0.90308222  0.54828870  0.08671778    -0.05800
H1090       H  0.84816552  0.54626082  0.04790269     0.14900
C1091       C  0.78729702  0.47722124  0.11903724    -0.16000
H1092       H  0.84246730  0.47791894  0.15498530     0.09200
H1093       H  0.98468623  0.97951412  0.12760741     0.07100
H1094       H  0.96501913  0.94661886  0.14829277     0.08300
H1095       H  0.99484929  0.96846941  0.17253452     0.07300
H1096       H  0.85374725  0.54178236  0.19101559     0.02200
H1097       H  0.87807721  0.56867235  0.16540226     0.02700
H1098       H  0.88390896  0.56487733  0.21315976     0.06200
H1099       H  0.90037507  0.56250974  0.06203064     0.05200
H1100       H  0.92160502  0.04475870  0.08853650    -0.00600
H1101       H  0.90850520  0.56423290  0.10955103     0.00900
H1102       H  0.79191637  0.45182649  0.11785746     0.04500
H1103       H  0.76670725  0.48264376  0.10154698     0.06500
H1104       H  0.78026987  0.48372482  0.14700465     0.07300
C1105       C  0.98888406  0.86523035  0.39404948    -0.22300
C1106       C  0.50954453  0.86104405  0.36556100     0.09700
C1107       C  0.52857256  0.83407484  0.36326792     0.10100
C1108       C  0.52630391  0.81166308  0.39059415    -0.17200
C1109       C  0.00491300  0.81558418  0.41924107    -0.27600
C1110       C  0.98667407  0.84326554  0.42171403     0.18400
C1111       C  0.01099888  0.88543908  0.33687349     0.12400
C1112       C  0.55092439  0.82888074  0.33185303    -0.12000
H1113       H  0.54054786  0.79067459  0.38868539     0.12700
C1114       C  0.96575658  0.85123747  0.45367828    -0.22800
H1115       H  0.97491427  0.88641672  0.39586189     0.08300
C1116       C  0.98868028  0.88698881  0.30868813     0.04700
C1117       C  0.98821346  0.91328041  0.28641850    -0.20000
C1118       C  0.00899174  0.93894375  0.29212614    -0.12300
C1119       C  0.53353487  0.93588938  0.31989574     0.13400
C1120       C  0.53386390  0.90940666  0.34183907    -0.22800
C1121       C  0.96484623  0.86106291  0.30265832    -0.05800
H1122       H  0.97082414  0.91328683  0.26511607     0.14900
C1123       C  0.55915610  0.95981739  0.32792041    -0.16000
H1124       H  0.55150715  0.90763221  0.36314021     0.09200
H1125       H  0.94040152  0.85286632  0.44495988     0.07100
H1126       H  0.97329125  0.87405422  0.46509229     0.08300
H1127       H  0.96738779  0.83414203  0.47569095     0.07300
H1128       H  0.56890699  0.84793719  0.33075795     0.02200
H1129       H  0.53710218  0.82847619  0.30633766     0.02700
H1130       H  0.56391969  0.80648122  0.33408173     0.06200
H1131       H  0.94896663  0.86571701  0.27936051     0.05200
H1132       H  0.94953472  0.85827709  0.32698199    -0.00600
H1133       H  0.97771952  0.83896314  0.29726308     0.00900
H1134       H  0.55707484  0.96749568  0.35648927     0.04500
H1135       H  0.55810499  0.98080678  0.31126734     0.06500
H1136       H  0.58312953  0.94922734  0.32373165     0.07300
C1137       C  0.97013662  0.58507963  0.34370287    -0.22300
C1138       C  0.49624810  0.60625920  0.33808605     0.09700
C1139       C  0.51939456  0.60000032  0.31107622     0.10100
C1140       C  0.51690301  0.57257029  0.29032521    -0.17200
C1141       C  0.49187003  0.55127455  0.29606627    -0.27600
C1142       C  0.96735295  0.55813804  0.32241154     0.18400
C1143       C  0.99826527  0.63307523  0.36398304     0.12400
C1144       C  0.54681971  0.62207643  0.30434341    -0.12000
H1145       H  0.53537153  0.56703775  0.27068700     0.12700
C1146       C  0.93808680  0.53799862  0.32777652    -0.22800
H1147       H  0.95236870  0.58968511  0.36446470     0.08300
C1148       C  0.97621881  0.65784458  0.36351880     0.04700
C1149       C  0.97804938  0.68121976  0.39011835    -0.20000
C1150       C  0.00142518  0.68063080  0.41737463    -0.12300
C1151       C  0.52432393  0.65571640  0.41700397     0.13400
C1152       C  0.52255232  0.63265643  0.39001992    -0.22800
C1153       C  0.95098878  0.65983604  0.33468862    -0.05800
H1154       H  0.96099326  0.70016595  0.38959814     0.14900
C1155       C  0.54953997  0.65112427  0.44554711    -0.16000
H1156       H  0.53903937  0.61322050  0.39069851     0.09200
H1157       H  0.91622135  0.55237447  0.32472353     0.07100
H1158       H  0.93829995  0.52801851  0.35531007     0.08300
H1159       H  0.93633897  0.51879976  0.30778618     0.07300
H1160       H  0.56202172  0.62400501  0.32873092     0.02200
H1161       H  0.53732855  0.64538808  0.29752829     0.02700
H1162       H  0.56222615  0.61404641  0.28164682     0.06200
H1163       H  0.93642643  0.68129125  0.33750317     0.05200
H1164       H  0.93448451  0.63962238  0.33638248    -0.00600
H1165       H  0.96262390  0.66003978  0.30770613     0.00900
H1166       H  0.54685843  0.62753119  0.45720913     0.04500
H1167       H  0.54827337  0.66760255  0.46838245     0.06500
H1168       H  0.57369271  0.65294740  0.43305360     0.07300
C1169       C  0.97115010  0.85648813  0.60662774    -0.22300
C1170       C  0.49984380  0.86105334  0.62598109     0.09700
C1171       C  0.52679920  0.84249123  0.61848335     0.10100
C1172       C  0.52454541  0.81882628  0.59236008    -0.17200
C1173       C  0.49594006  0.81316199  0.57322189    -0.27600
C1174       C  0.96849482  0.83278187  0.58051750     0.18400
C1175       C  0.50209679  0.88890653  0.64964811     0.12400
C1176       C  0.55821222  0.84827984  0.63731043    -0.12000
H1177       H  0.54562161  0.80501638  0.58650153     0.12700
C1178       C  0.93690935  0.82903084  0.56135753    -0.22800
H1179       H  0.95099108  0.87170674  0.61198370     0.08300
C1180       C  0.50555888  0.91872531  0.63484310     0.04700
C1181       C  0.50721199  0.94468991  0.65779705    -0.20000
C1182       C  0.50508749  0.94204849  0.69576168    -0.12300
C1183       C  0.00316317  0.91136736  0.70997270     0.13400
C1184       C  0.00069444  0.88571209  0.68647322    -0.22800
C1185       C  0.50802712  0.92312687  0.59458135    -0.05800
H1186       H  0.51094345  0.96677131  0.64509397     0.14900
C1187       C  0.00396443  0.90394998  0.74970423    -0.16000
H1188       H  0.99796581  0.86253035  0.69744297     0.09200
H1189       H  0.91894122  0.84627384  0.57085541     0.07100
H1190       H  0.92684948  0.80555185  0.56655372     0.08300
H1191       H  0.94020000  0.83250085  0.53199102     0.07300
H1192       H  0.55510094  0.84522671  0.66682056     0.02200
H1193       H  0.56660246  0.87234050  0.63191261     0.02700
H1194       H  0.57708392  0.83192659  0.62794987     0.06200
H1195       H  0.51135743  0.94794287  0.58730962     0.05200
H1196       H  0.48580843  0.91467504  0.58134939    -0.00600
H1197       H  0.52881835  0.90989265  0.58383527     0.00900
H1198       H  0.98106728  0.89269546  0.75773371     0.04500
H1199       H  0.00797728  0.92422610  0.76745889     0.06500
H1200       H  0.02387805  0.88753484  0.75492353     0.07300
C1201       C  0.51811877  0.61352421  0.67779443    -0.22300
C1202       C  0.99010296  0.61653079  0.65648335     0.09700
C1203       C  0.96416116  0.59599058  0.66184831     0.10100
C1204       C  0.96756117  0.57120228  0.68589362    -0.17200
C1205       C  0.99629290  0.56649306  0.70472097    -0.27600
C1206       C  0.52133342  0.58899477  0.70230056     0.18400
C1207       C  0.98971319  0.63995104  0.62738400     0.12400
C1208       C  0.93326008  0.59978609  0.64151910    -0.12000
H1209       H  0.94832005  0.55435244  0.68858160     0.12700
C1210       C  0.55192125  0.58718901  0.72337448    -0.22800
H1211       H  0.53778976  0.62974983  0.67406524     0.08300
C1212       C  0.98453819  0.67178938  0.63456261     0.04700
C1213       C  0.98550892  0.69302448  0.60593966    -0.20000
C1214       C  0.99155309  0.68299576  0.57047604    -0.12300
C1215       C  0.49714557  0.65055448  0.56348778     0.13400
C1216       C  0.49664297  0.62968463  0.59234889    -0.22800
C1217       C  0.97789514  0.68320733  0.67231815    -0.05800
H1218       H  0.98193034  0.71759935  0.61127168     0.14900
C1219       C  0.50305353  0.63774086  0.52615394    -0.16000
H1220       H  0.50120721  0.60521397  0.58729903     0.09200
H1221       H  0.55559979  0.60927239  0.73851466     0.07100
H1222       H  0.57240657  0.58365397  0.70461309     0.08300
H1223       H  0.55158556  0.56826561  0.74328120     0.07300
H1224       H  0.93769674  0.59750524  0.61209250     0.02200
H1225       H  0.92302019  0.62308544  0.64738139     0.02700
H1226       H  0.91524870  0.58195770  0.64932883     0.06200
H1227       H  0.97394625  0.70873238  0.67316371     0.05200
H1228       H  0.99852268  0.67783675  0.68999073    -0.00600
H1229       H  0.95607932  0.67158986  0.68303671     0.00900
H1230       H  0.52723298  0.62710208  0.52485746     0.04500
H1231       H  0.50142151  0.65572764  0.50502360     0.06500
H1232       H  0.48484905  0.61961630  0.51989959     0.07300
loop_ 
_geom_bond_atom_site_label_1 
_geom_bond_atom_site_label_2 
_geom_bond_distance 
_geom_bond_site_symmetry_2 
_ccdc_geom_bond_type 
O1           Ni9   1.912       .  S
O1          C627   1.279       .  A
O2           Ni9   1.915       .  S
O2           C12   1.280       .  A
O3           Ni9   1.924       .  S
O3           C13   1.284       .  A
O4           Ni9   1.921       .  S
O4          C630   1.281       .  A
O5          Ni10   1.916       .  S
O5           C14   1.282   1_455  A
O6          Ni10   1.921       .  S
O6          C629   1.281   1_455  A
O7          Ni10   1.909       .  S
O7          C628   1.280   1_455  A
O8          Ni10   1.913       .  S
O8           C11   1.280   1_455  A
Ni9        Ni626   2.385       .  S
Ni10       Ni625   2.385   1_455  S
C11         O617   1.279       .  A
C11         C906   1.465       .  S
C12         O623   1.280       .  A
C12         C185   1.477       .  S
C13         O622   1.281       .  A
C13         C226   1.494       .  S
C14         O620   1.281       .  A
C14         C249   1.497       .  S
C15          C16   1.551       .  S
C15         C329   1.535       .  S
C15         C635   1.539       .  S
C15         C194   1.541       .  S
C16          H23   1.079       .  S
C16         C325   1.366       .  D
C17          C18   1.533   1_565  S
C17         C324   1.364       .  D
C17         C153   1.478   1_565  S
C18         C638   1.540       .  S
C18         C636   1.539       .  S
C18          H24   1.111       .  S
C19         C631   1.538   1_455  S
C19          H25   1.086       .  S
C19         C328   1.365       .  D
C20         C634   1.541   1_455  S
C20         C327   1.368   1_545  D
C20         C121   1.486       .  S
C21         C323   1.537       .  S
C21          H26   1.086       .  S
C21         C638   1.366   1_565  D
C22         C634   1.542       .  S
C22         C637   1.366   1_545  D
C22         C217   1.492       .  S
C27          C28   1.530       .  S
C27         C341   1.545   1_455  S
C27         C647   1.538   1_455  S
C27         C258   1.547   1_455  S
C28          H35   1.087       .  S
C28         C337   1.360       .  D
C29          C30   1.538   1_565  S
C29         C336   1.364       .  D
C29          C57   1.480   1_565  S
C30         C650   1.535       .  S
C30         C648   1.538   1_445  S
C30          H36   1.111       .  S
C31         C643   1.539       .  S
C31          H37   1.085       .  S
C31         C340   1.378       .  D
C32         C646   1.538   1_565  S
C32         C339   1.367       .  D
C32          C89   1.485   1_565  S
C33         C335   1.546   1_545  S
C33          H38   1.081   1_455  S
C33         C650   1.364       .  D
C34         C646   1.532       .  S
C34         C649   1.363       .  D
C34         C281   1.480       .  S
O39         Ni47   1.920   1_554  S
O39          C49   1.282       .  A
O40         Ni47   1.919       .  S
O40          C50   1.281       .  A
O41         Ni47   1.917       .  S
O41          C51   1.280       .  A
O42         Ni47   1.918   1_554  S
O42          C52   1.281       .  A
O43         Ni48   1.920   1_554  S
O43         C360   1.282       .  A
O44         Ni48   1.920       .  S
O44         C359   1.282       .  A
O45         Ni48   1.916       .  S
O45         C358   1.281       .  A
O46         Ni48   1.915   1_554  S
O46         C357   1.280       .  A
Ni47       Ni356   2.383   1_546  S
Ni48       Ni355   2.384   1_556  S
C49         O354   1.282   1_545  A
C49         C130   1.493       .  S
C50         O353   1.282   1_545  A
C50          C98   1.485       .  S
C51         O352   1.282   1_545  A
C51          C66   1.495       .  S
C52         O351   1.282   1_545  A
C52         C162   1.478       .  S
C53          C54   1.400       .  A
C53          C58   1.401       .  A
C53          H63   1.085       .  S
C54          C59   1.477       .  S
C54         C363   1.410       .  A
C55          C60   1.507       .  S
C55          C56   1.403       .  A
C55         C362   1.411       .  A
C56         C365   1.402       .  A
C56          H61   1.083       .  S
C57          C58   1.417       .  A
C57         C364   1.403       .  A
C58          C62   1.508       .  S
C59          C68   1.397       .  A
C59         C372   1.407   1_545  A
C60          H76   1.110       .  S
C60          H77   1.110       .  S
C60          H78   1.111       .  S
C62          H73   1.110   1_545  S
C62          H74   1.111       .  S
C62          H75   1.107       .  S
C64          C69   1.507       .  S
C64          C65   1.405       .  A
C64         C367   1.411       .  A
C65         C374   1.407       .  A
C65          H70   1.084       .  S
C66          C67   1.425       .  A
C66         C373   1.411   1_545  A
C67          C71   1.508       .  S
C67          C68   1.405       .  A
C68          H72   1.084       .  S
C69          H79   1.111       .  S
C69          H80   1.110       .  S
C69          H81   1.110       .  S
C71          H82   1.110       .  S
C71          H83   1.110       .  S
C71          H84   1.111       .  S
C85          C86   1.402   1_565  A
C85          C90   1.403       .  A
C85          H95   1.084       .  S
C86          C91   1.488       .  S
C86         C395   1.414       .  A
C87          C92   1.507       .  S
C87          C88   1.403       .  A
C87         C394   1.405       .  A
C88         C397   1.416       .  A
C88          H93   1.082       .  S
C89          C90   1.415   1_545  A
C89         C396   1.403       .  A
C90          C94   1.506       .  S
C91         C100   1.401       .  A
C91         C404   1.414   1_545  A
C92         H108   1.110       .  S
C92         H109   1.110       .  S
C92         H110   1.111       .  S
C94         H105   1.111       .  S
C94         H106   1.111       .  S
C94         H107   1.107       .  S
C96         C101   1.507       .  S
C96         C399   1.410       .  A
C96         C405   1.404       .  A
C97          C98   1.405   1_565  A
C97         C404   1.406       .  A
C97         H410   1.084       .  S
C98          C99   1.417       .  A
C99         C103   1.507       .  S
C99         C100   1.406       .  A
C100        H104   1.084       .  S
C101        H111   1.111       .  S
C101        H112   1.110       .  S
C101        H113   1.111       .  S
H102        C405   1.084       .  S
C103        H114   1.109       .  S
C103        H115   1.110       .  S
C103        H116   1.111       .  S
C117        C118   1.400       .  A
C117        C122   1.401       .  A
C117        H127   1.084       .  S
C118        C123   1.486       .  S
C118        C427   1.414       .  A
C119        C124   1.507       .  S
C119        C120   1.403       .  A
C119        C426   1.411       .  A
C120        C429   1.402       .  A
C120        H125   1.082       .  S
C121        C122   1.416       .  A
C121        C428   1.404       .  A
C122        C126   1.505       .  S
C123        C128   1.410       .  A
C123        C440   1.400   1_545  A
C124        H140   1.110       .  S
C124        H141   1.109       .  S
C124        H142   1.111       .  S
C126        H137   1.110       .  S
C126        H138   1.110   1_545  S
C126        H139   1.106       .  S
C128        C133   1.506       .  S
C128        C129   1.406       .  A
C129        C130   1.409       .  A
C129        H134   1.084       .  S
C130        C439   1.421   1_545  A
C131        C135   1.508       .  S
C131        C132   1.405       .  A
C131        C438   1.425       .  A
C132        C431   1.397       .  A
C132        H136   1.084       .  S
C133        H143   1.111       .  S
C133        H144   1.109       .  S
C133        H145   1.110       .  S
C135        H146   1.111       .  S
C135        H147   1.107       .  S
C135        H148   1.109       .  S
C149        C154   1.403       .  A
C149        C458   1.401       .  A
C149        H159   1.085       .  S
C150        C155   1.482       .  S
C150        C151   1.412       .  A
C150        C457   1.401   1_545  A
C151        C156   1.506       .  S
C151        C152   1.405       .  A
C152        C153   1.402       .  A
C152        H157   1.084       .  S
C153        C462   1.415   1_545  A
C154        C158   1.508       .  S
C154        C461   1.417       .  A
C155        C160   1.410       .  A
C155        C164   1.401   1_545  A
C156        H172   1.110       .  S
C156        H173   1.110       .  S
C156        H174   1.111       .  S
C158        H169   1.111       .  S
C158        H170   1.110       .  S
C158        H171   1.107       .  S
C160        C165   1.506       .  S
C160        C161   1.404       .  A
C161        C162   1.405       .  A
C161        H166   1.083       .  S
C162        C163   1.417       .  A
C163        C167   1.508   1_545  S
C163        C164   1.403   1_545  A
C164        H168   1.084       .  S
C165        H175   1.111       .  S
C165        H177   1.110       .  S
C165        H484   1.110       .  S
C167        H178   1.110       .  S
C167        H179   1.107       .  S
C167        H180   1.111       .  S
H176        C473   1.110       .  S
C181        C186   1.402       .  A
C181        C798   1.401       .  A
C181        H191   1.085       .  S
C182        C803   1.478       .  S
C182        C183   1.408   1_655  A
C182        C797   1.401       .  A
C183        C188   1.507       .  S
C183        C184   1.400       .  A
C184        C801   1.405   1_455  A
C184        H189   1.084       .  S
C185        C186   1.420       .  A
C185        C800   1.405       .  A
C186        C190   1.510       .  S
C187        C798   1.479       .  S
C187        C192   1.404       .  A
C187        C812   1.395       .  A
C188        H204   1.110       .  S
C188        H205   1.110       .  S
C188        H206   1.111       .  S
C190        H201   1.110       .  S
C190        H202   1.111       .  S
C190        H203   1.105       .  S
C192        C197   1.508       .  S
C192        C193   1.403       .  A
C193        C194   1.416       .  A
C193        H198   1.072       .  S
C194        C811   1.431       .  A
C195        C199   1.512       .  S
C195        C196   1.401       .  A
C195        C810   1.431       .  A
C196        C803   1.395   1_455  A
C196        H200   1.085       .  S
C197        H207   1.110       .  S
C197        H208   1.110       .  S
C197        H209   1.110       .  S
C199        H210   1.111       .  S
C199        H211   1.101       .  S
C199        H212   1.111       .  S
C213        C218   1.402       .  A
C213        C830   1.401       .  A
C213        H223   1.085       .  S
C214        C835   1.489       .  S
C214        C215   1.412   1_655  A
C214        C829   1.401       .  A
C215        C220   1.505       .  S
C215        C216   1.408       .  A
C216        C217   1.405   1_455  A
C216        H221   1.084       .  S
C217        C834   1.420       .  A
C218        C222   1.508       .  S
C218        C833   1.418       .  A
C219        C830   1.489       .  S
C219        C224   1.409       .  A
C219        C844   1.401       .  A
C220        H236   1.110       .  S
C220        H237   1.111       .  S
C220        H238   1.111       .  S
C222        H233   1.111       .  S
C222        H234   1.110       .  S
C222        H235   1.108       .  S
C224        C229   1.506       .  S
C224        C225   1.406       .  A
C225        C226   1.409       .  A
C225        H230   1.084       .  S
C226        C843   1.425       .  A
C227        C231   1.510       .  S
C227        C228   1.407       .  A
C227        C842   1.426   1_455  A
C228        C835   1.400   1_455  A
C228        H232   1.085       .  S
C229        H239   1.111       .  S
C229        H240   1.109       .  S
C229        H241   1.110       .  S
C231        H242   1.111       .  S
C231        H243   1.100       .  S
C231        H244   1.111       .  S
C245        C250   1.406       .  A
C245        C862   1.400       .  A
C245        H255   1.084       .  S
C246        C251   1.482       .  S
C246        C247   1.407   1_655  A
C246        C861   1.400       .  A
C247        C252   1.507       .  S
C247        C248   1.402       .  A
C248        C249   1.411   1_455  A
C248        H253   1.083       .  S
C249        C866   1.424       .  A
C250        C254   1.508       .  S
C250        C865   1.424       .  A
C251        C256   1.404       .  A
C251        C876   1.397   1_655  A
C252        H268   1.110       .  S
C252        H269   1.110       .  S
C252        H270   1.111       .  S
C254        H265   1.111       .  S
C254        H266   1.110       .  S
C254        H267   1.110       .  S
C256        C261   1.510       .  S
C256        C257   1.399       .  A
C257        C258   1.416       .  A
C257        H262   1.074       .  S
C258        C875   1.432   1_655  A
C259        C263   1.511       .  S
C259        C260   1.407       .  A
C259        C874   1.432       .  A
C260        C867   1.397       .  A
C260        H264   1.085       .  S
C261        H271   1.111       .  S
C261        H272   1.109       .  S
C261        H273   1.110   1_655  S
C263        H274   1.111       .  S
C263        H275   1.102       .  S
C263        H276   1.111       .  S
C277        C282   1.403       .  A
C277        C894   1.399   1_455  A
C277        H287   1.085       .  S
C278        C283   1.475       .  S
C278        C279   1.409       .  A
C278        C893   1.399       .  A
C279        C284   1.507       .  S
C279        C280   1.400       .  A
C280        C281   1.404       .  A
C280        H285   1.085       .  S
C281        C898   1.417       .  A
C282        C286   1.505       .  S
C282        C897   1.417   1_455  A
C283        C288   1.409       .  A
C283        C908   1.401       .  A
C284        H300   1.110       .  S
C284        H301   1.110       .  S
C284        H302   1.111       .  S
C286        H297   1.110       .  S
C286        H298   1.110       .  S
C286        H299   1.100       .  S
C288        C293   1.505       .  S
C288        C289   1.404       .  A
C289        C290   1.403       .  A
C289        H294   1.084       .  S
C290        C627   1.463       .  S
C290        C907   1.411       .  A
C291        C295   1.507       .  S
C291        C292   1.398       .  A
C291        C906   1.412   1_455  A
C292        C899   1.401   1_455  A
C292        H296   1.085       .  S
C293        H303   1.111       .  S
C293        H304   1.110       .  S
C293        H305   1.110       .  S
C295        H306   1.110       .  S
C295        H307   1.106       .  S
C295        H308   1.110       .  S
O309       Ni317   1.915       .  S
O309        C935   1.279       .  A
O310       Ni317   1.918       .  S
O310        C320   1.281       .  A
O311       Ni317   1.926       .  S
O311        C321   1.284       .  A
O312       Ni317   1.922       .  S
O312        C938   1.281       .  A
O313       Ni318   1.918       .  S
O313        C322   1.283   1_455  A
O314       Ni318   1.919       .  S
O314        C937   1.280       .  A
O315       Ni318   1.919       .  S
O315        C936   1.281       .  A
O316       Ni318   1.920       .  S
O316        C319   1.281   1_455  A
Ni317      Ni934   2.386       .  S
Ni318      Ni933   2.386   1_455  S
C319        O925   1.279       .  A
C319       C1214   1.470       .  S
C320        O931   1.281       .  A
C320        C493   1.478       .  S
C321        O930   1.280       .  A
C321        C534   1.491       .  S
C322        O928   1.281       .  A
C322        C557   1.495       .  S
C323        C324   1.551       .  S
C323        C943   1.537       .  S
C323        C502   1.547       .  S
C324        H331   1.081       .  S
C325        C326   1.533       .  S
C325        C461   1.478       .  S
C326        C946   1.539       .  S
C326        C944   1.535       .  S
C326        H332   1.111       .  S
C327        C939   1.535       .  S
C327        H333   1.086       .  S
C328        C942   1.535   1_455  S
C328        C429   1.478       .  S
C329        H334   1.086       .  S
C329        C946   1.363       .  D
C330        C942   1.540       .  S
C330        C945   1.363       .  D
C330        C525   1.485       .  S
C335        C336   1.534       .  S
C335        C955   1.540   1_455  S
C335        C566   1.541       .  S
C336        H343   1.086       .  S
C337        C338   1.552       .  S
C337        C365   1.482       .  S
C338        C958   1.536       .  S
C338        C956   1.552   1_455  S
C338        H344   1.098       .  S
C339        C951   1.540       .  S
C339        H345   1.086       .  S
C340        C954   1.552       .  S
C340        C397   1.520       .  S
C341        H346   1.080       .  S
C341        C958   1.360   1_655  D
C342        C954   1.536       .  S
C342        C957   1.360       .  D
C342        C589   1.486       .  S
O347       Ni355   1.927       .  S
O347        C357   1.284       .  A
O348       Ni355   1.924   1_556  S
O348        C358   1.283       .  A
O349       Ni355   1.917   1_556  S
O349        C359   1.280       .  A
O350       Ni355   1.919       .  S
O350        C360   1.280       .  A
O351       Ni356   1.919       .  S
O352       Ni356   1.916   1_556  S
O353       Ni356   1.924   1_556  S
O354       Ni356   1.921       .  S
C357        C438   1.496       .  S
C358        C406   1.484       .  S
C359        C374   1.489       .  S
C360        C470   1.478       .  S
C361        C362   1.402       .  A
C361        C366   1.405       .  A
C361        H371   1.084       .  S
C362        C367   1.485       .  S
C363        C368   1.506       .  S
C363        C364   1.402       .  A
C364        H369   1.084       .  S
C365        C366   1.417       .  A
C366        C370   1.507       .  S
C367        C376   1.400       .  A
C368        H384   1.110       .  S
C368        H385   1.109   1_545  S
C368        H386   1.111       .  S
C370        H381   1.110       .  S
C370        H382   1.110       .  S
C370        H383   1.108       .  S
C372        C377   1.508       .  S
C372        C373   1.403       .  A
C373        H378   1.084       .  S
C374        C375   1.420       .  A
C375        C379   1.508       .  S
C375        C376   1.405       .  A
C376        H380   1.084       .  S
C377        H387   1.111       .  S
C377        H388   1.110       .  S
C377        H389   1.109       .  S
C379        H390   1.109       .  S
C379        H391   1.111       .  S
C379        H392   1.111       .  S
C393        C394   1.396       .  A
C393        C398   1.409       .  A
C393        H403   1.085       .  S
C394        C399   1.485       .  S
C395        C400   1.506       .  S
C395        C396   1.407       .  A
C396        H401   1.084       .  S
C397        C398   1.430       .  A
C398        C402   1.503       .  S
C399        C408   1.401       .  A
C400        H416   1.109       .  S
C400        H417   1.110       .  S
C400        H418   1.111       .  S
C402        H413   1.111       .  S
C402        H414   1.108       .  S
C402        H415   1.099       .  S
C404        C409   1.507       .  S
C405        C406   1.406       .  A
C406        C407   1.420       .  A
C407        C411   1.509       .  S
C407        C408   1.406       .  A
C408        H412   1.084       .  S
C409        H419   1.111       .  S
C409        H420   1.109       .  S
C409        H421   1.111       .  S
C411        H422   1.110       .  S
C411        H423   1.105       .  S
C411        H424   1.111       .  S
C425        C426   1.403       .  A
C425        C430   1.404       .  A
C425        H435   1.084       .  S
C426        C431   1.482       .  S
C427        C432   1.506       .  S
C427        C428   1.408       .  A
C428        H433   1.084       .  S
C429        C430   1.413       .  A
C430        C434   1.507       .  S
C431        C436   1.408       .  A
C432        H448   1.109       .  S
C432        H449   1.110       .  S
C432        H450   1.111       .  S
C434        H445   1.110       .  S
C434        H446   1.110       .  S
C434        H447   1.108       .  S
C436        C441   1.507       .  S
C436        C437   1.406       .  A
C437        C438   1.410       .  A
C437        H442   1.083       .  S
C439        C443   1.508       .  S
C439        C440   1.405       .  A
C440        H444   1.084       .  S
C441        H451   1.111       .  S
C441        H452   1.110       .  S
C441        H453   1.109       .  S
C443        H454   1.111       .  S
C443        H455   1.110       .  S
C443        H456   1.111       .  S
C457        C462   1.402       .  A
C457        H467   1.084       .  S
C458        C463   1.480       .  S
C458        C459   1.411       .  A
C459        C464   1.506       .  S
C459        C460   1.403       .  A
C460        C461   1.401       .  A
C460        H465   1.084       .  S
C462        C466   1.508       .  S
C463        C468   1.410       .  A
C463        C472   1.400       .  A
C464        H480   1.110       .  S
C464        H481   1.109       .  S
C464        H482   1.111       .  S
C466        H477   1.111       .  S
C466        H478   1.110       .  S
C466        H479   1.107       .  S
C468        C473   1.506       .  S
C468        C469   1.405       .  A
C469        C470   1.405       .  A
C469        H474   1.084       .  S
C470        C471   1.416       .  A
C471        C475   1.506       .  S
C471        C472   1.402       .  A
C472        H476   1.084       .  S
C473        H483   1.111       .  S
C473        H485   1.109       .  S
C475        H486   1.110       .  S
C475        H487   1.105       .  S
C475        H488   1.111       .  S
C489       C1106   1.400       .  A
C489        C494   1.402       .  A
C489        H499   1.085       .  S
C490       C1111   1.482       .  S
C490       C1105   1.400   1_455  A
C490        C491   1.410       .  A
C491        C496   1.505       .  S
C491        C492   1.406       .  A
C492       C1109   1.406       .  A
C492        H497   1.084       .  S
C493       C1108   1.405       .  A
C493        C494   1.417       .  A
C494        C498   1.508       .  S
C495       C1106   1.482       .  S
C495        C500   1.404       .  A
C495       C1120   1.395       .  A
C496        H512   1.110       .  S
C496        H513   1.110       .  S
C496        H514   1.111       .  S
C498        H509   1.110       .  S
C498        H510   1.111       .  S
C498        H511   1.105       .  S
C500        C505   1.508       .  S
C500        C501   1.404       .  A
C501        C502   1.417       .  A
C501        H506   1.075       .  S
C502       C1119   1.433       .  A
C503        C507   1.510       .  S
C503       C1118   1.433       .  A
C503        C504   1.404       .  A
C504       C1111   1.394       .  A
C504        H508   1.085       .  S
C505        H515   1.111       .  S
C505        H516   1.110       .  S
C505        H517   1.110       .  S
C507        H518   1.111       .  S
C507        H519   1.098       .  S
C507        H520   1.111       .  S
C521       C1138   1.402       .  A
C521        C526   1.402       .  A
C521        H531   1.084       .  S
C522       C1143   1.489       .  S
C522       C1137   1.402       .  A
C522        C523   1.413   1_655  A
C523        C528   1.505       .  S
C523        C524   1.408       .  A
C524        C525   1.403   1_455  A
C524        H529   1.084       .  S
C525       C1142   1.417       .  A
C526        C530   1.508       .  S
C526       C1141   1.416       .  A
C527       C1138   1.489       .  S
C527        C532   1.411       .  A
C527       C1152   1.401       .  A
C528        H544   1.109       .  S
C528        H545   1.110       .  S
C528        H546   1.111       .  S
C530        H541   1.111       .  S
C530        H542   1.110       .  S
C530        H543   1.108       .  S
C532        C537   1.507       .  S
C532        C533   1.406       .  A
C533        C534   1.408       .  A
C533        H538   1.084       .  S
C534       C1151   1.425       .  A
C535        C539   1.510       .  S
C535       C1150   1.425       .  A
C535        C536   1.406       .  A
C536       C1143   1.401   1_455  A
C536        H540   1.085       .  S
C537        H547   1.111       .  S
C537        H548   1.109       .  S
C537        H549   1.110       .  S
C539        H550   1.111       .  S
C539        H551   1.102       .  S
C539        H552   1.110       .  S
C553       C1170   1.399       .  A
C553        C558   1.406       .  A
C553        H563   1.084       .  S
C554        C559   1.480   1_655  S
C554       C1169   1.399       .  A
C554        C555   1.407   1_655  A
C555        C560   1.507       .  S
C555        C556   1.402       .  A
C556        C557   1.410   1_455  A
C556        H561   1.084       .  S
C557       C1174   1.423       .  A
C558        C562   1.508       .  S
C558       C1173   1.424       .  A
C559        C564   1.405       .  A
C559       C1184   1.397       .  A
C560        H576   1.110       .  S
C560        H577   1.110       .  S
C560        H578   1.111       .  S
C562        H573   1.111       .  S
C562        H574   1.110       .  S
C562        H575   1.109       .  S
C564        C569   1.509       .  S
C564        C565   1.401       .  A
C565        C566   1.415       .  A
C565        H570   1.075       .  S
C566       C1183   1.430       .  A
C567        C571   1.510       .  S
C567       C1182   1.431       .  A
C567        C568   1.406       .  A
C568       C1175   1.397       .  A
C568        H572   1.085       .  S
C569        H579   1.111       .  S
C569        H580   1.110   1_455  S
C569        H581   1.111       .  S
C571        H582   1.110       .  S
C571        H583   1.101       .  S
C571        H584   1.111       .  S
C585       C1202   1.401   1_455  A
C585        C590   1.404       .  A
C585        H595   1.084       .  S
C586        C591   1.480       .  S
C586       C1201   1.401       .  A
C586        C587   1.409       .  A
C587        C592   1.506       .  S
C587        C588   1.402       .  A
C588        C589   1.406       .  A
C588        H593   1.084       .  S
C589       C1206   1.415       .  A
C590        C594   1.502       .  S
C590       C1205   1.414   1_455  A
C591        C596   1.410       .  A
C591       C1216   1.402       .  A
C592        H608   1.110       .  S
C592        H609   1.110       .  S
C592        H610   1.111       .  S
C594        H605   1.110       .  S
C594        H606   1.110       .  S
C594        H607   1.102       .  S
C596        C601   1.505       .  S
C596        C597   1.405       .  A
C597        C598   1.403       .  A
C597        H602   1.084       .  S
C598        C935   1.469       .  S
C598       C1215   1.412       .  A
C599        C603   1.506   1_655  S
C599       C1214   1.412       .  A
C599        C600   1.402       .  A
C600       C1207   1.402       .  A
C600        H604   1.085       .  S
C601        H611   1.111       .  S
C601        H612   1.110       .  S
C601        H613   1.110       .  S
C603        H614   1.110       .  S
C603        H615   1.107       .  S
C603        H616   1.110   1_455  S
O617       Ni625   1.912       .  S
O618       Ni625   1.915       .  S
O618        C628   1.280       .  A
O619       Ni625   1.926       .  S
O619        C629   1.284       .  A
O620       Ni625   1.921       .  S
O621       Ni626   1.918       .  S
O621        C630   1.283       .  A
O622       Ni626   1.923       .  S
O623       Ni626   1.910       .  S
O624       Ni626   1.913       .  S
O624        C627   1.279       .  A
C628        C801   1.477       .  S
C629        C842   1.494       .  S
C630        C865   1.498       .  S
C631        C632   1.551       .  S
C631        C945   1.535       .  S
C631        C810   1.540   1_655  S
C632        H639   1.080       .  S
C632        C941   1.365       .  D
C633        C634   1.534   1_565  S
C633        C940   1.365       .  D
C633        C769   1.479   1_565  S
C634        H640   1.111       .  S
C635        H641   1.086       .  S
C635        C944   1.365       .  D
C636        C943   1.368   1_545  D
C636        C737   1.485       .  S
C637        C939   1.537   1_655  S
C637        H642   1.086       .  S
C638        C833   1.490       .  S
C643        C644   1.531       .  S
C643        C957   1.545       .  S
C643        C874   1.548       .  S
C644        H651   1.087       .  S
C644        C953   1.361       .  D
C645        C646   1.539   1_565  S
C645        C952   1.366       .  D
C645        C673   1.483   1_565  S
C646        H652   1.111       .  S
C647        H653   1.085       .  S
C647        C956   1.378       .  D
C648        C955   1.367       .  D
C648        C705   1.486   1_565  S
C649        C951   1.548   1_545  S
C649        H654   1.080       .  S
C650        C897   1.481   1_455  S
O655       Ni663   1.919   1_554  S
O655        C665   1.282       .  A
O656       Ni663   1.919       .  S
O656        C666   1.281       .  A
O657       Ni663   1.916       .  S
O657        C667   1.280       .  A
O658       Ni663   1.917   1_554  S
O658        C668   1.281       .  A
O659       Ni664   1.920       .  S
O659        C976   1.282       .  A
O660       Ni664   1.921   1_556  S
O660        C975   1.283       .  A
O661       Ni664   1.915   1_556  S
O661        C974   1.281       .  A
O662       Ni664   1.915       .  S
O662        C973   1.280       .  A
Ni663      Ni972   2.385   1_546  S
Ni664      Ni971   2.384       .  S
C665        O970   1.281   1_545  A
C665        C746   1.491       .  S
C666        O969   1.282   1_545  A
C666        C714   1.481       .  S
C667        O968   1.282   1_545  A
C667        C682   1.489       .  S
C668        O967   1.282   1_545  A
C668        C778   1.477       .  S
C669        C670   1.399       .  A
C669        C674   1.400       .  A
C669        H679   1.085       .  S
C670        C675   1.478       .  S
C670        C979   1.411       .  A
C671        C676   1.507       .  S
C671        C978   1.411       .  A
C671        C672   1.403       .  A
C672        C981   1.402       .  A
C672        H677   1.083       .  S
C673        C980   1.404       .  A
C673        C674   1.418       .  A
C674        C678   1.508       .  S
C675        C988   1.409   1_545  A
C675        C684   1.399       .  A
C676        H692   1.110       .  S
C676        H693   1.110       .  S
C676        H694   1.111       .  S
C678        H689   1.110   1_545  S
C678        H690   1.111       .  S
C678        H691   1.107       .  S
C680        C685   1.507       .  S
C680        C983   1.411       .  A
C680        C681   1.405       .  A
C681        C990   1.407       .  A
C681        H686   1.084       .  S
C682        C989   1.409   1_545  A
C682        C683   1.421       .  A
C683        C687   1.508       .  S
C683        C684   1.404       .  A
C684        H688   1.084       .  S
C685        H695   1.111       .  S
C685        H696   1.110       .  S
C685        H697   1.110       .  S
C687        H698   1.111       .  S
C687        H699   1.109       .  S
C687        H700   1.111       .  S
C701        C702   1.401   1_565  A
C701        C706   1.403       .  A
C701        H711   1.084       .  S
C702        C707   1.487       .  S
C702       C1011   1.413       .  A
C703        C708   1.507       .  S
C703       C1010   1.405       .  A
C703        C704   1.403       .  A
C704       C1013   1.416       .  A
C704        H709   1.082       .  S
C705       C1012   1.404       .  A
C705        C706   1.416   1_545  A
C706        C710   1.507       .  S
C707       C1020   1.414   1_545  A
C707        C716   1.402       .  A
C708        H724   1.110       .  S
C708        H725   1.110       .  S
C708        H726   1.111       .  S
C710        H721   1.111       .  S
C710        H722   1.111       .  S
C710        H723   1.106       .  S
C712        C717   1.507       .  S
C712       C1015   1.410       .  A
C712       C1021   1.404       .  A
C713       C1020   1.405       .  A
C713        C714   1.403   1_565  A
C713       H1026   1.084       .  S
C714        C715   1.415       .  A
C715        C719   1.506       .  S
C715        C716   1.405       .  A
C716        H720   1.084       .  S
C717        H727   1.111       .  S
C717        H728   1.110       .  S
C717        H729   1.111       .  S
H718       C1021   1.084       .  S
C719        H730   1.110       .  S
C719        H731   1.109       .  S
C719        H732   1.111       .  S
C733        C734   1.400       .  A
C733        C738   1.401       .  A
C733        H743   1.085       .  S
C734        C739   1.484       .  S
C734       C1043   1.413       .  A
C735        C740   1.507       .  S
C735       C1042   1.411       .  A
C735        C736   1.403       .  A
C736       C1045   1.402       .  A
C736        H741   1.082       .  S
C737       C1044   1.404       .  A
C737        C738   1.415       .  A
C738        C742   1.506       .  S
C739        C744   1.409       .  A
C739       C1056   1.400   1_545  A
C740        H756   1.110       .  S
C740        H757   1.109       .  S
C740        H758   1.111       .  S
C742        H753   1.111       .  S
C742        H754   1.110   1_545  S
C742        H755   1.106       .  S
C744        C749   1.506       .  S
C744        C745   1.405       .  A
C745        C746   1.409       .  A
C745        H750   1.084       .  S
C746       C1055   1.421   1_545  A
C747        C751   1.508       .  S
C747       C1054   1.425       .  A
C747        C748   1.404       .  A
C748       C1047   1.397       .  A
C748        H752   1.084       .  S
C749        H759   1.111       .  S
C749        H760   1.109       .  S
C749        H761   1.110       .  S
C751        H762   1.111       .  S
C751        H763   1.107       .  S
C751        H764   1.109       .  S
C765       C1074   1.401       .  A
C765        C770   1.403       .  A
C765        H775   1.085       .  S
C766        C771   1.482       .  S
C766       C1073   1.401   1_545  A
C766        C767   1.411       .  A
C767        C772   1.506       .  S
C767        C768   1.406       .  A
C768        C769   1.403       .  A
C768        H773   1.084       .  S
C769       C1078   1.415   1_545  A
C770        C774   1.508       .  S
C770       C1077   1.417       .  A
C771        C776   1.410       .  A
C771        C780   1.401       .  A
C772        H788   1.110       .  S
C772        H789   1.110       .  S
C772        H790   1.111       .  S
C774        H785   1.111       .  S
C774        H786   1.110       .  S
C774        H787   1.107       .  S
C776        C781   1.506       .  S
C776        C777   1.404       .  A
C777        C778   1.404       .  A
C777        H782   1.083       .  S
C778        C779   1.417       .  A
C779        C783   1.508   1_545  S
C779        C780   1.404       .  A
C780        H784   1.084   1_545  S
C781        H791   1.111       .  S
C781       H1100   1.110       .  S
C781        H793   1.110       .  S
C783        H794   1.110       .  S
C783        H795   1.107       .  S
C783        H796   1.111       .  S
H792       C1089   1.110       .  S
C797        C802   1.402       .  A
C797        H807   1.085       .  S
C798        C799   1.409       .  A
C799        C804   1.507       .  S
C799        C800   1.401       .  A
C800        H805   1.084       .  S
C801        C802   1.419       .  A
C802        C806   1.510       .  S
C803        C808   1.404       .  A
C804        H820   1.110       .  S
C804        H821   1.110       .  S
C804        H822   1.111       .  S
C806        H817   1.110       .  S
C806        H818   1.111       .  S
C806        H819   1.105       .  S
C808        C813   1.508       .  S
C808        C809   1.403       .  A
C809        C810   1.416   1_655  A
C809        H814   1.072       .  S
C811        C815   1.512       .  S
C811        C812   1.402       .  A
C812        H816   1.085       .  S
C813        H823   1.110       .  S
C813        H824   1.110       .  S
C813        H825   1.111       .  S
C815        H826   1.111       .  S
C815        H827   1.101       .  S
C815        H828   1.111       .  S
C829        C834   1.403       .  A
C829        H839   1.085       .  S
C830        C831   1.413       .  A
C831        C836   1.505       .  S
C831        C832   1.409       .  A
C832        C833   1.405       .  A
C832        H837   1.084       .  S
C834        C838   1.508       .  S
C835        C840   1.409       .  A
C836        H852   1.109       .  S
C836        H853   1.111       .  S
C836        H854   1.111       .  S
C838        H849   1.111       .  S
C838        H850   1.110       .  S
C838        H851   1.107       .  S
C840        C845   1.506       .  S
C840        C841   1.406       .  A
C841        C842   1.409       .  A
C841        H846   1.084       .  S
C843        C847   1.510       .  S
C843        C844   1.407       .  A
C844        H848   1.085       .  S
C845        H855   1.111       .  S
C845        H856   1.109       .  S
C845        H857   1.110       .  S
C847        H858   1.111       .  S
C847        H859   1.101       .  S
C847        H860   1.110       .  S
C861        C866   1.406       .  A
C861        H871   1.084       .  S
C862        C867   1.484       .  S
C862        C863   1.408       .  A
C863        C868   1.507       .  S
C863        C864   1.403       .  A
C864        C865   1.411       .  A
C864        H869   1.083       .  S
C866        C870   1.508       .  S
C867        C872   1.405       .  A
C868        H884   1.110       .  S
C868        H885   1.110       .  S
C868        H886   1.111       .  S
C870        H881   1.111       .  S
C870        H882   1.110       .  S
C870        H883   1.110       .  S
C872        C877   1.510       .  S
C872        C873   1.400       .  A
C873        C874   1.416       .  A
C873        H878   1.074       .  S
C875        C879   1.511       .  S
C875        C876   1.407       .  A
C876        H880   1.085       .  S
C877        H887   1.111       .  S
C877        H888   1.109       .  S
C877        H889   1.110       .  S
C879        H890   1.111   1_455  S
C879        H891   1.102       .  S
C879        H892   1.111       .  S
C893        C898   1.402       .  A
C893        H903   1.085       .  S
C894        C899   1.474       .  S
C894        C895   1.408       .  A
C895        C900   1.507       .  S
C895        C896   1.399       .  A
C896        C897   1.404       .  A
C896        H901   1.085       .  S
C898        C902   1.505       .  S
C899        C904   1.409       .  A
C900        H916   1.110       .  S
C900        H917   1.110       .  S
C900        H918   1.111       .  S
C902        H913   1.110       .  S
C902        H914   1.110       .  S
C902        H915   1.100       .  S
C904        C909   1.505       .  S
C904        C905   1.404       .  A
C905        C906   1.404       .  A
C905        H910   1.085       .  S
C907        C911   1.507       .  S
C907        C908   1.398       .  A
C908        H912   1.085       .  S
C909        H919   1.111       .  S
C909        H920   1.110       .  S
C909        H921   1.110       .  S
C911        H922   1.110       .  S
C911        H923   1.107       .  S
C911        H924   1.110       .  S
O925       Ni933   1.917       .  S
O926       Ni933   1.920       .  S
O926        C936   1.282   1_655  A
O927       Ni933   1.924       .  S
O927        C937   1.284   1_655  A
O928       Ni933   1.921       .  S
O929       Ni934   1.919       .  S
O929        C938   1.283       .  A
O930       Ni934   1.919       .  S
O931       Ni934   1.919       .  S
O932       Ni934   1.920       .  S
O932        C935   1.281       .  A
C936       C1109   1.479       .  S
C937       C1150   1.491       .  S
C938       C1173   1.497       .  S
C939        C940   1.551   1_455  S
C939       C1118   1.547       .  S
C940        H947   1.081       .  S
C941        C942   1.533       .  S
C941       C1077   1.478       .  S
C942        H948   1.111       .  S
C943        H949   1.086       .  S
C944       C1045   1.478       .  S
C945        H950   1.086       .  S
C946       C1141   1.485       .  S
C951        C952   1.535       .  S
C951       C1182   1.545       .  S
C952        H959   1.086       .  S
C953        C954   1.552       .  S
C953        C981   1.483       .  S
C954        H960   1.098       .  S
C955        H961   1.085       .  S
C956       C1013   1.520       .  S
C957        H962   1.081       .  S
C958       C1205   1.486   1_455  S
O963       Ni971   1.927       .  S
O963        C973   1.284       .  A
O964       Ni971   1.923   1_556  S
O964        C974   1.283       .  A
O965       Ni971   1.917   1_556  S
O965        C975   1.280       .  A
O966       Ni971   1.919       .  S
O966        C976   1.280       .  A
O967       Ni972   1.918       .  S
O968       Ni972   1.915   1_556  S
O969       Ni972   1.921   1_556  S
O970       Ni972   1.918       .  S
C973       C1054   1.496       .  S
C974       C1022   1.483       .  S
C975        C990   1.489       .  S
C976       C1086   1.478       .  S
C977        C978   1.402       .  A
C977        C982   1.405       .  A
C977        H987   1.084       .  S
C978        C983   1.485       .  S
C979        C984   1.507       .  S
C979        C980   1.403       .  A
C980        H985   1.084       .  S
C981        C982   1.417       .  A
C982        C986   1.507       .  S
C983        C992   1.400       .  A
C984       H1000   1.110       .  S
C984       H1001   1.108       .  S
C984       H1002   1.111       .  S
C986        H997   1.110       .  S
C986        H998   1.110       .  S
C986        H999   1.108       .  S
C988        C993   1.509       .  S
C988        C989   1.402       .  A
C989        H994   1.084       .  S
C990        C991   1.420       .  A
C991        C995   1.508       .  S
C991        C992   1.405       .  A
C992        H996   1.084       .  S
C993       H1003   1.111       .  S
C993       H1004   1.110       .  S
C993       H1005   1.108       .  S
C995       H1006   1.109       .  S
C995       H1007   1.111       .  S
C995       H1008   1.111       .  S
C1009      C1010   1.396       .  A
C1009      C1014   1.409       .  A
C1009      H1019   1.085       .  S
C1010      C1015   1.484       .  S
C1011      C1016   1.506       .  S
C1011      C1012   1.407       .  A
C1012      H1017   1.084       .  S
C1013      C1014   1.430       .  A
C1014      C1018   1.503       .  S
C1015      C1024   1.401       .  A
C1016      H1032   1.109       .  S
C1016      H1033   1.110       .  S
C1016      H1034   1.111       .  S
C1018      H1029   1.111       .  S
C1018      H1030   1.109       .  S
C1018      H1031   1.099       .  S
C1020      C1025   1.507       .  S
C1021      C1022   1.406       .  A
C1022      C1023   1.420       .  A
C1023      C1027   1.509       .  S
C1023      C1024   1.405       .  A
C1024      H1028   1.084       .  S
C1025      H1035   1.111       .  S
C1025      H1036   1.109       .  S
C1025      H1037   1.110       .  S
C1027      H1038   1.110       .  S
C1027      H1039   1.106       .  S
C1027      H1040   1.111       .  S
C1041      C1042   1.403       .  A
C1041      C1046   1.404       .  A
C1041      H1051   1.084       .  S
C1042      C1047   1.482       .  S
C1043      C1048   1.506       .  S
C1043      C1044   1.406       .  A
C1044      H1049   1.084       .  S
C1045      C1046   1.413       .  A
C1046      C1050   1.507       .  S
C1047      C1052   1.408       .  A
C1048      H1064   1.109       .  S
C1048      H1065   1.111       .  S
C1048      H1066   1.111       .  S
C1050      H1061   1.110       .  S
C1050      H1062   1.110       .  S
C1050      H1063   1.108       .  S
C1052      C1057   1.507       .  S
C1052      C1053   1.406       .  A
C1053      C1054   1.410       .  A
C1053      H1058   1.083       .  S
C1055      C1059   1.508       .  S
C1055      C1056   1.405       .  A
C1056      H1060   1.084       .  S
C1057      H1067   1.111       .  S
C1057      H1068   1.110       .  S
C1057      H1069   1.109       .  S
C1059      H1070   1.111       .  S
C1059      H1071   1.110       .  S
C1059      H1072   1.111       .  S
C1073      C1078   1.402       .  A
C1073      H1083   1.084       .  S
C1074      C1079   1.480       .  S
C1074      C1075   1.411       .  A
C1075      C1080   1.506       .  S
C1075      C1076   1.403       .  A
C1076      C1077   1.401       .  A
C1076      H1081   1.084       .  S
C1078      C1082   1.508       .  S
C1079      C1084   1.410       .  A
C1079      C1088   1.400       .  A
C1080      H1096   1.110       .  S
C1080      H1097   1.109       .  S
C1080      H1098   1.111       .  S
C1082      H1093   1.111       .  S
C1082      H1094   1.110       .  S
C1082      H1095   1.108       .  S
C1084      C1089   1.506       .  S
C1084      C1085   1.405       .  A
C1085      C1086   1.405       .  A
C1085      H1090   1.084       .  S
C1086      C1087   1.416       .  A
C1087      C1091   1.506       .  S
C1087      C1088   1.402       .  A
C1088      H1092   1.084       .  S
C1089      H1099   1.111       .  S
C1089      H1101   1.109       .  S
C1091      H1102   1.110       .  S
C1091      H1103   1.105       .  S
C1091      H1104   1.111       .  S
C1105      C1110   1.402       .  A
C1105      H1115   1.085       .  S
C1106      C1107   1.410       .  A
C1107      C1112   1.505       .  S
C1107      C1108   1.406       .  A
C1108      H1113   1.084       .  S
C1109      C1110   1.417   1_455  A
C1110      C1114   1.507       .  S
C1111      C1116   1.405   1_455  A
C1112      H1128   1.110       .  S
C1112      H1129   1.110       .  S
C1112      H1130   1.111       .  S
C1114      H1125   1.110       .  S
C1114      H1126   1.111       .  S
C1114      H1127   1.105       .  S
C1116      C1121   1.508       .  S
C1116      C1117   1.405       .  A
C1117      C1118   1.416   1_655  A
C1117      H1122   1.075       .  S
C1119      C1123   1.510       .  S
C1119      C1120   1.404       .  A
C1120      H1124   1.085       .  S
C1121      H1131   1.111       .  S
C1121      H1132   1.110       .  S
C1121      H1133   1.110       .  S
C1123      H1134   1.111       .  S
C1123      H1135   1.098       .  S
C1123      H1136   1.111       .  S
C1137      C1142   1.402       .  A
C1137      H1147   1.084       .  S
C1138      C1139   1.414       .  A
C1139      C1144   1.506       .  S
C1139      C1140   1.408       .  A
C1140      C1141   1.403       .  A
C1140      H1145   1.084       .  S
C1142      C1146   1.508       .  S
C1143      C1148   1.410       .  A
C1144      H1160   1.109       .  S
C1144      H1161   1.110       .  S
C1144      H1162   1.111       .  S
C1146      H1157   1.111       .  S
C1146      H1158   1.110       .  S
C1146      H1159   1.108       .  S
C1148      C1153   1.507       .  S
C1148      C1149   1.405       .  A
C1149      C1150   1.408   1_655  A
C1149      H1154   1.084       .  S
C1151      C1155   1.510       .  S
C1151      C1152   1.406       .  A
C1152      H1156   1.085       .  S
C1153      H1163   1.111       .  S
C1153      H1164   1.109       .  S
C1153      H1165   1.110       .  S
C1155      H1166   1.111       .  S
C1155      H1167   1.102       .  S
C1155      H1168   1.110       .  S
C1169      C1174   1.405       .  A
C1169      H1179   1.085       .  S
C1170      C1175   1.483       .  S
C1170      C1171   1.407       .  A
C1171      C1176   1.507       .  S
C1171      C1172   1.403       .  A
C1172      C1173   1.411       .  A
C1172      H1177   1.083       .  S
C1174      C1178   1.508       .  S
C1175      C1180   1.405       .  A
C1176      H1192   1.110       .  S
C1176      H1193   1.110       .  S
C1176      H1194   1.111       .  S
C1178      H1189   1.111       .  S
C1178      H1190   1.110       .  S
C1178      H1191   1.108       .  S
C1180      C1185   1.509       .  S
C1180      C1181   1.401       .  A
C1181      C1182   1.415       .  A
C1181      H1186   1.073       .  S
C1183      C1187   1.510       .  S
C1183      C1184   1.405       .  A
C1184      H1188   1.085   1_455  S
C1185      H1195   1.111       .  S
C1185      H1196   1.110       .  S
C1185      H1197   1.110       .  S
C1187      H1198   1.110   1_455  S
C1187      H1199   1.102       .  S
C1187      H1200   1.111       .  S
C1201      C1206   1.404       .  A
C1201      H1211   1.085       .  S
C1202      C1207   1.481       .  S
C1202      C1203   1.409       .  A
C1203      C1208   1.506       .  S
C1203      C1204   1.402       .  A
C1204      C1205   1.406       .  A
C1204      H1209   1.084       .  S
C1206      C1210   1.502       .  S
C1207      C1212   1.410       .  A
C1208      H1224   1.110       .  S
C1208      H1225   1.110       .  S
C1208      H1226   1.111       .  S
C1210      H1221   1.110       .  S
C1210      H1222   1.110       .  S
C1210      H1223   1.102       .  S
C1212      C1217   1.505       .  S
C1212      C1213   1.405       .  A
C1213      C1214   1.403       .  A
C1213      H1218   1.084       .  S
C1215      C1219   1.506       .  S
C1215      C1216   1.401       .  A
C1216      H1220   1.085       .  S
C1217      H1227   1.111       .  S
C1217      H1228   1.110       .  S
C1217      H1229   1.110       .  S
C1219      H1230   1.110       .  S
C1219      H1231   1.107       .  S
C1219      H1232   1.110       .  S
