geometry optimzed in LAMMPS
_audit_creation_date              2020-12-01 
_audit_creation_method            'lammps2cif' 
_symmetry_space_group_name_H-M    'P1' 
_symmetry_Int_Tables_number       1 
_symmetry_cell_setting            triclinic 
loop_ 
_symmetry_equiv_pos_as_xyz 
  x,y,z 
_cell_length_a                    71.39380522 
_cell_length_b                    71.40337926185978 
_cell_length_c                    71.33266481970985 
_cell_angle_alpha                 89.87168106994285 
_cell_angle_beta                  89.80958509543763 
_cell_angle_gamma                 89.6326336333343 
loop_ 
_atom_site_label 
_atom_site_type_symbol 
_atom_site_fract_x 
_atom_site_fract_y 
_atom_site_fract_z 
_atom_site_charge 
N1          N  0.34116184  0.88012421  0.72883373    -0.06500
N2          N  0.32932270  0.88884050  0.74005144    -0.58600
N3          N  0.36261514  0.84004443  0.71703012    -0.06200
N4          N  0.36411624  0.82187317  0.72014000    -0.60700
N5          N  0.37160993  0.84949075  0.72987318    -0.05800
N6          N  0.37968376  0.83808980  0.74192137    -0.58600
N7          N  0.33216306  0.87066594  0.71600271    -0.05500
N8          N  0.31388709  0.87252425  0.71826910    -0.61100
C9          C  0.31242722  0.88402437  0.73323720     0.95700
C10         C  0.37495015  0.82098106  0.73560691     0.95500
N11         N  0.37255794  0.84734078  0.65974334    -0.06700
N12         N  0.37937751  0.83386581  0.64864328    -0.59200
N13         N  0.33322929  0.86959284  0.67276416    -0.04800
N14         N  0.31496496  0.86971923  0.67109868    -0.60500
N15         N  0.34136354  0.87888935  0.65901738    -0.06700
N16         N  0.32817300  0.88569377  0.64759428    -0.59500
N17         N  0.36302810  0.83955586  0.67354968    -0.04400
N18         N  0.36302829  0.82123963  0.67221045    -0.60500
Mn19       Mn  0.34757248  0.85472027  0.69479676     1.18400
C20         C  0.37319346  0.81765663  0.65680619     0.97800
C21         C  0.31177596  0.87972585  0.65554869     0.98400
N22         N  0.40207776  0.87962251  0.73056919    -0.06700
N23         N  0.41306481  0.87149568  0.74297464    -0.63000
N24         N  0.38132923  0.91961352  0.71687327    -0.05500
N25         N  0.37906323  0.93784445  0.71940936    -0.63700
N26         N  0.37159902  0.91022462  0.72932024    -0.06200
N27         N  0.36236521  0.92164854  0.74048671    -0.63300
N28         N  0.41196308  0.88871727  0.71801964    -0.05100
N29         N  0.43003769  0.88716772  0.72171199    -0.64000
Mn30       Mn  0.37161332  0.87986849  0.73008985     1.10700
C31         C  0.43042415  0.87622873  0.73722406     0.99000
C32         C  0.36707074  0.93878267  0.73413982     0.99100
N33         N  0.37412887  0.91129524  0.65954591    -0.06300
N34         N  0.36723667  0.92468592  0.64839007    -0.61600
N35         N  0.41306498  0.88898705  0.67418698    -0.05600
N36         N  0.43139224  0.88896812  0.67266678    -0.58400
N37         N  0.40523904  0.87988179  0.66018705    -0.06900
N38         N  0.41862939  0.87337615  0.64880686    -0.61200
N39         N  0.38335946  0.91917037  0.67341547    -0.05900
N40         N  0.38309459  0.93747651  0.67204706    -0.58400
Mn41       Mn  0.37334590  0.87936356  0.65833530     1.20200
Mn42       Mn  0.39776815  0.90436137  0.69559568     1.10100
Cl43       Cl  0.37265815  0.87955977  0.69432896    -0.86300
C44         C  0.37308167  0.94093601  0.65657471     0.96000
C45         C  0.43485790  0.87924166  0.65696491     0.95800
N46         N  0.20884542  0.86972477  0.84346154    -0.06500
N47         N  0.21096745  0.87201632  0.82521863    -0.58600
N48         N  0.22241327  0.84880773  0.88347268    -0.06200
N49         N  0.23407396  0.83752563  0.89238114    -0.60700
N50         N  0.20988488  0.83916262  0.87424582    -0.05800
N51         N  0.21279588  0.82100764  0.87653294    -0.58600
N52         N  0.22132080  0.87943048  0.85269816    -0.05500
N53         N  0.23215006  0.88874427  0.84100069    -0.61100
C54         C  0.22545521  0.88401985  0.82396984     0.95700
C55         C  0.22787337  0.82026979  0.88795798     0.95500
N56         N  0.20782081  0.88833345  0.92324005    -0.06700
N57         N  0.21011597  0.88651409  0.94150279    -0.59200
N58         N  0.22006630  0.90991994  0.88325894    -0.04800
N59         N  0.23091351  0.92184759  0.87436160    -0.60500
N60         N  0.20702071  0.91885082  0.89271464    -0.06700
N61         N  0.20877126  0.93714156  0.89069954    -0.59500
N62         N  0.22102722  0.87933562  0.91405623    -0.04400
N63         N  0.23254597  0.87094292  0.92582705    -0.60500
Mn64       Mn  0.22181463  0.87939638  0.88336282     1.18400
C65         C  0.22551053  0.87551388  0.94282918     0.97800
C66         C  0.22364874  0.93870289  0.87908442     0.98400
N67         N  0.16653180  0.83837869  0.87368123    -0.06700
N68         N  0.16615663  0.82007402  0.87470312    -0.63000
N69         N  0.15139357  0.87697296  0.85113957    -0.05500
N70         N  0.13989005  0.88328594  0.83779376    -0.63700
N71         N  0.16549211  0.86789374  0.84324812    -0.06200
N72         N  0.16393660  0.86772603  0.82491927    -0.63300
N73         N  0.15231250  0.84604089  0.88275675    -0.05100
N74         N  0.14183036  0.83251103  0.89021382    -0.64000
Mn75       Mn  0.18768006  0.85351314  0.85838594     1.10700
C76         C  0.15087634  0.81641342  0.88494645     0.99000
C77         C  0.14809907  0.87731056  0.82149879     0.99100
N78         N  0.16406889  0.91780634  0.89315472    -0.06300
N79         N  0.16274119  0.93607862  0.89268092    -0.61600
N80         N  0.15096314  0.87857671  0.91499285    -0.05600
N81         N  0.13975655  0.87162977  0.92826909    -0.58400
N82         N  0.16458911  0.88796399  0.92301338    -0.06900
N83         N  0.16304901  0.88776468  0.94131818    -0.61200
N84         N  0.15059517  0.90985383  0.88348700    -0.05900
N85         N  0.13971833  0.92322046  0.87604405    -0.58400
Mn86       Mn  0.18583326  0.90342301  0.90829255     1.20200
Mn87       Mn  0.14999262  0.87786979  0.88305330     1.10100
Cl88       Cl  0.18600697  0.87852112  0.88324393    -0.86300
C89         C  0.14768855  0.93952753  0.88207401     0.96000
C90         C  0.14769020  0.87761423  0.94460407     0.95800
N91         N  0.41505225  0.71279182  0.89194456    -0.06500
N92         N  0.43315638  0.71560865  0.88924572    -0.58600
N93         N  0.37565798  0.72551992  0.91466432    -0.06200
N94         N  0.36695316  0.73688478  0.92634440    -0.60700
N95         N  0.38536464  0.71287962  0.92385592    -0.05800
N96         N  0.38363167  0.71540119  0.94213741    -0.58600
N97         N  0.40514122  0.72539935  0.88287686    -0.05500
N98         N  0.41613198  0.73697301  0.87366665    -0.61100
C99         C  0.43352807  0.73067376  0.87768708     0.95700
C100        C  0.37200695  0.73039201  0.94337208     0.95500
N101        N  0.33451267  0.71213347  0.87663317    -0.06700
N102        N  0.31636683  0.71457819  0.87968507    -0.59200
N103        N  0.37344057  0.72522793  0.85373862    -0.04800
N104        N  0.38102035  0.73712531  0.84187520    -0.60500
N105        N  0.36392476  0.71243096  0.84477789    -0.06700
N106        N  0.36458913  0.71538564  0.82652185    -0.59500
N107        N  0.34416488  0.72488982  0.88554967    -0.04400
N108        N  0.33297809  0.73615574  0.89501103    -0.60500
Mn109      Mn  0.37462750  0.72573285  0.88418561     1.18400
C110        C  0.31572683  0.72954838  0.89131438     0.97800
C111        C  0.37543464  0.73074867  0.82503103     0.98400
N112        N  0.38622747  0.66957245  0.92407411    -0.06700
N113        N  0.38641291  0.66846751  0.94239892    -0.63000
N114        N  0.40738786  0.65517108  0.88492551    -0.05500
N115        N  0.42057013  0.64317864  0.87910112    -0.63700
N116        N  0.41543892  0.66916395  0.89376474    -0.06200
N117        N  0.43366574  0.66701412  0.89438791    -0.63300
N118        N  0.37683769  0.65560816  0.91660263    -0.05100
N119        N  0.37039125  0.64460218  0.93030836    -0.64000
Mn120      Mn  0.40080370  0.69111826  0.90859565     1.10700
C121        C  0.37658642  0.65302115  0.94633098     0.99000
C122        C  0.43688333  0.65094928  0.88523984     0.99100
N123        N  0.36459643  0.66896137  0.84477147    -0.06300
N124        N  0.36496476  0.66763892  0.82640525    -0.61600
N125        N  0.34350230  0.65496488  0.88462941    -0.05600
N126        N  0.33039973  0.64357077  0.89155151    -0.58400
N127        N  0.33523578  0.66870233  0.87539665    -0.06900
N128        N  0.31698348  0.66702176  0.87563303    -0.61200
N129        N  0.37445781  0.65540470  0.85269105    -0.05900
N130        N  0.38192015  0.64459896  0.83933603    -0.58400
Mn131      Mn  0.34928441  0.69051226  0.86012291     1.20200
Mn132      Mn  0.37551224  0.65401151  0.88469130     1.10100
Cl133      Cl  0.37508958  0.68996521  0.88436239    -0.86300
C134        C  0.37574230  0.65255053  0.82301030     0.96000
C135        C  0.31390375  0.65148830  0.88569441     0.95800
N136        N  0.33212670  0.04413288  0.89322109    -0.06500
N137        N  0.31385088  0.04206819  0.89167798    -0.58600
N138        N  0.37215285  0.02997030  0.91351176    -0.06200
N139        N  0.38114518  0.01835732  0.92478076    -0.60700
N140        N  0.36310338  0.04276267  0.92322237    -0.05800
N141        N  0.36554631  0.04006234  0.94136685    -0.58600
N142        N  0.34106969  0.03137658  0.88339722    -0.05500
N143        N  0.32913994  0.02040814  0.87473631    -0.61100
C144        C  0.31228584  0.02730619  0.88000677     0.95700
C145        C  0.37690720  0.02486343  0.94205929     0.95500
N146        N  0.41157986  0.04260160  0.87291046    -0.06700
N147        N  0.42978377  0.03949202  0.87438849    -0.59200
N148        N  0.37109613  0.03147287  0.85219216    -0.04800
N149        N  0.36211472  0.02050136  0.84049286    -0.60500
N150        N  0.38046535  0.04431392  0.84298293    -0.06700
N151        N  0.37823266  0.04230222  0.82471874    -0.59500
N152        N  0.40213134  0.02985628  0.88215806    -0.04400
N153        N  0.41357940  0.01787247  0.89033055    -0.60500
Mn154      Mn  0.37159746  0.03010208  0.88281399     1.18400
C155        C  0.43072366  0.02407993  0.88539849     0.97800
C156        C  0.36663027  0.02746338  0.82346951     0.98400
N157        N  0.36267688  0.08622857  0.92423699    -0.06700
N158        N  0.36261407  0.08770292  0.94256828    -0.63000
N159        N  0.34062045  0.10113880  0.88537435    -0.05500
N160        N  0.32746029  0.11258053  0.87850461    -0.63700
N161        N  0.33246014  0.08749417  0.89477934    -0.06200
N162        N  0.31414295  0.08940779  0.89479805    -0.63300
N163        N  0.37212211  0.09994907  0.91630375    -0.05100
N164        N  0.37886259  0.11109341  0.92960700    -0.64000
Mn165      Mn  0.34735760  0.06513825  0.90913068     1.10700
C166        C  0.37272100  0.10308126  0.94589968     0.99000
C167        C  0.31101146  0.10493614  0.88464329     0.99100
N168        N  0.38194823  0.08767115  0.84416597    -0.06300
N169        N  0.38159258  0.08973346  0.82591099    -0.61600
N170        N  0.40471430  0.09981548  0.88337869    -0.05600
N171        N  0.41839509  0.11047657  0.89023845    -0.58400
N172        N  0.41227427  0.08601529  0.87362259    -0.06900
N173        N  0.43061516  0.08691773  0.87356972    -0.61200
N174        N  0.37297697  0.10144783  0.85266340    -0.05900
N175        N  0.36618743  0.11327672  0.83983482    -0.58400
Mn176      Mn  0.39680915  0.06519239  0.85816520     1.20200
Mn177      Mn  0.37265276  0.10181433  0.88447190     1.10100
Cl178      Cl  0.37213641  0.06587069  0.88368222    -0.86300
C179        C  0.37178436  0.10556363  0.82320663     0.96000
C180        C  0.43450396  0.10206003  0.88389275     0.95800
N181        N  0.38251887  0.83796359  0.05099740    -0.06500
N182        N  0.38001238  0.81979621  0.04851097    -0.58600
N183        N  0.40543376  0.87685186  0.03785633    -0.06200
N184        N  0.41754297  0.88477849  0.02641504    -0.60700
N185        N  0.41416012  0.86733474  0.05096257    -0.05800
N186        N  0.43249338  0.86834547  0.04865492    -0.58600
N187        N  0.37388968  0.84755327  0.03786313    -0.05500
N188        N  0.36513831  0.83630989  0.02628948    -0.61100
C189        C  0.36899672  0.81909002  0.03310953     0.95700
C190        C  0.43431129  0.87939824  0.03336549     0.95500
N191        N  0.36637743  0.91824421  0.04897967    -0.06700
N192        N  0.36919386  0.93633602  0.04648538    -0.59200
N193        N  0.34430992  0.87889718  0.03638647    -0.04800
N194        N  0.33281514  0.87032459  0.02487743    -0.60500
N195        N  0.33487917  0.88864350  0.04882802    -0.06700
N196        N  0.31667374  0.88715526  0.04598672    -0.59500
N197        N  0.37590403  0.90845532  0.03663892    -0.04400
N198        N  0.38557101  0.91956214  0.02551194    -0.60500
Mn199      Mn  0.37491337  0.87795959  0.03667435     1.18400
C200        C  0.38130524  0.93687230  0.03189467     0.97800
C201        C  0.31566933  0.87556962  0.03107364     0.98400
N202        N  0.41313911  0.86816693  0.09429107    -0.06700
N203        N  0.43145182  0.86858141  0.09534135    -0.63000
N204        N  0.37321307  0.84740713  0.10821020    -0.05500
N205        N  0.36571372  0.83436446  0.11939062    -0.63700
N206        N  0.38250573  0.83902089  0.09456965    -0.06200
N207        N  0.38169933  0.82076698  0.09608359    -0.63300
N208        N  0.40527818  0.87816126  0.10775357    -0.05100
N209        N  0.41872432  0.88565077  0.11833168    -0.64000
Mn210      Mn  0.39831161  0.85280647  0.07279732     1.10700
C211        C  0.43502470  0.87939990  0.11022406     0.99000
C212        C  0.37128351  0.81778693  0.11140766     0.99100
N213        N  0.33399613  0.88988834  0.09215064    -0.06300
N214        N  0.31566439  0.88947334  0.09256369    -0.61600
N215        N  0.37311805  0.91148979  0.10641926    -0.05600
N216        N  0.37995885  0.92519741  0.11709660    -0.58400
N217        N  0.36444000  0.91903326  0.09195261    -0.06900
N218        N  0.36519617  0.93732370  0.09228732    -0.61200
N219        N  0.34130834  0.88073969  0.10647583    -0.05900
N220        N  0.32746935  0.87380477  0.11700749    -0.58400
Mn221      Mn  0.34965341  0.90418017  0.07052027     1.20200
Mn222      Mn  0.37321990  0.87949607  0.10863779     1.10100
Cl223      Cl  0.37402028  0.87858481  0.07253312    -0.86300
C224        C  0.31154104  0.87950258  0.10794333     0.96000
C225        C  0.37481325  0.94124819  0.10782516     0.95800
N226        N  0.53997644  0.88980160  0.84636924    -0.06500
N227        N  0.53606789  0.88923795  0.82829219    -0.58600
N228        N  0.52958177  0.90953359  0.88773189    -0.06200
N229        N  0.51813334  0.92110938  0.89652793    -0.60700
N230        N  0.54207934  0.91888004  0.87802072    -0.05800
N231        N  0.53935906  0.93707932  0.87984204    -0.58600
N232        N  0.52741904  0.88052247  0.85605373    -0.05500
N233        N  0.51477847  0.87324072  0.84489537    -0.61100
C234        C  0.52038236  0.87873701  0.82768982     0.95700
C235        C  0.52449570  0.93819075  0.89156983     0.95500
N236        N  0.54296173  0.86723996  0.92528152    -0.06700
N237        N  0.54087064  0.86789572  0.94368769    -0.59200
N238        N  0.52816079  0.84838893  0.88495767    -0.04800
N239        N  0.51610842  0.83747557  0.87635088    -0.60500
N240        N  0.54122056  0.83834901  0.89317488    -0.06700
N241        N  0.53829060  0.82029456  0.89054590    -0.59500
N242        N  0.53012845  0.87747494  0.91696257    -0.04400
N243        N  0.51910970  0.88555627  0.92940469    -0.60500
Mn244      Mn  0.52834534  0.87901088  0.88649439     1.18400
C245        C  0.52600531  0.87952263  0.94595174     0.97800
C246        C  0.52263652  0.82003339  0.87992178     0.98400
N247        N  0.58533430  0.91830715  0.87497861    -0.06700
N248        N  0.58731636  0.93655277  0.87485815    -0.63000
N249        N  0.59766155  0.87963047  0.85122074    -0.05500
N250        N  0.60809355  0.87279844  0.83721122    -0.63700
N251        N  0.58361809  0.88939494  0.84413687    -0.06200
N252        N  0.58420246  0.88957489  0.82574208    -0.63300
N253        N  0.59947534  0.90989546  0.88343491    -0.05100
N254        N  0.61149996  0.92286848  0.88935296    -0.64000
Mn255      Mn  0.56278241  0.90428592  0.86064664     1.10700
C256        C  0.60348069  0.93946057  0.88382126     0.99000
C257        C  0.59936549  0.87924393  0.82138226     0.99100
N258        N  0.58452575  0.83790644  0.89179601    -0.06300
N259        N  0.58555716  0.81964236  0.89069987    -0.61600
N260        N  0.59974045  0.87581400  0.91522127    -0.05600
N261        N  0.61080167  0.88255282  0.92867459    -0.58400
N262        N  0.58622745  0.86599155  0.92309125    -0.06900
N263        N  0.58777517  0.86567004  0.94137585    -0.61200
N264        N  0.59829828  0.84599226  0.88252775    -0.05900
N265        N  0.60910604  0.83277718  0.87478173    -0.58400
Mn266      Mn  0.56380937  0.85209669  0.90853003     1.20200
Mn267      Mn  0.60011795  0.87784155  0.88313922     1.10100
Cl268      Cl  0.56411100  0.87833399  0.88470752    -0.86300
C269        C  0.60073085  0.81643858  0.88013036     0.96000
C270        C  0.60297477  0.87593523  0.94493911     0.95800
N271        N  0.87497461  0.34645248  0.65888655    -0.06500
N272        N  0.88202963  0.33328963  0.64756610    -0.58600
N273        N  0.83555994  0.36783091  0.67368361    -0.06200
N274        N  0.81723838  0.36770674  0.67282259    -0.60700
N275        N  0.84293008  0.37737351  0.65968039    -0.05800
N276        N  0.82914393  0.38411960  0.64894261    -0.58600
N277        N  0.86599385  0.33828736  0.67283998    -0.05500
N278        N  0.86647645  0.31997895  0.67128921    -0.61100
C279        C  0.87647157  0.31682672  0.65564443     0.95700
C280        C  0.81318726  0.37782126  0.65751832     0.95500
N281        N  0.84596577  0.37803667  0.72957599    -0.06700
N282        N  0.83461028  0.38644101  0.74150408    -0.59200
N283        N  0.86746003  0.33831169  0.71632263    -0.04800
N284        N  0.86935987  0.32012020  0.71907126    -0.60500
N285        N  0.87686329  0.34768322  0.72892758    -0.06700
N286        N  0.88556151  0.33616987  0.74048618    -0.59500
N287        N  0.83644520  0.36863000  0.71707785    -0.04400
N288        N  0.81827207  0.37025011  0.72031513    -0.60500
Mn289      Mn  0.85113448  0.35300820  0.69494580     1.18400
C290        C  0.81742052  0.38152480  0.73551260     0.97800
C291        C  0.88080403  0.31908003  0.73409857     0.98400
N292        N  0.87497091  0.41042149  0.65904078    -0.06700
N293        N  0.86775282  0.42381117  0.64807040    -0.63000
N294        N  0.91483840  0.38897948  0.67159676    -0.05500
N295        N  0.93304123  0.38946500  0.66930246    -0.63700
N296        N  0.90664280  0.37954784  0.65807277    -0.06200
N297        N  0.91968369  0.37308266  0.64630258    -0.63300
N298        N  0.88457856  0.41830894  0.67263760    -0.05100
N299        N  0.88425042  0.43660461  0.67126294    -0.64000
Mn300      Mn  0.87482431  0.37845484  0.65763124     1.10700
C301        C  0.87379965  0.44008817  0.65606989     0.99000
C302        C  0.93604458  0.37957515  0.65364190     0.99100
N303        N  0.90685275  0.37837249  0.72811312    -0.06300
N304        N  0.91849018  0.36991812  0.73963283    -0.61600
N305        N  0.88517352  0.41801295  0.71599696    -0.05600
N306        N  0.88343859  0.43618592  0.71883404    -0.58400
N307        N  0.87613261  0.40858815  0.72892422    -0.06900
N308        N  0.86784725  0.42002906  0.74082107    -0.61200
N309        N  0.91603133  0.38771902  0.71520494    -0.05900
N310        N  0.93430652  0.38599469  0.71776382    -0.58400
Mn311      Mn  0.87644934  0.37817570  0.72935795     1.20200
Mn312      Mn  0.90043674  0.40348383  0.69381815     1.10100
Cl313      Cl  0.87572594  0.37828298  0.69358627    -0.86300
C314        C  0.93548433  0.37471531  0.73300901     0.96000
C315        C  0.87248633  0.43711808  0.73428147     0.95800
N316        N  0.91380429  0.21258424  0.89214186    -0.06500
N317        N  0.93206944  0.21488703  0.89039216    -0.58600
N318        N  0.87415785  0.22632201  0.91316954    -0.06200
N319        N  0.86601613  0.23828761  0.92463782    -0.60700
N320        N  0.88317579  0.21335120  0.92261650    -0.05800
N321        N  0.88157022  0.21622745  0.94082672    -0.58600
N322        N  0.90469113  0.22544084  0.88265559    -0.05500
N323        N  0.91640004  0.23670770  0.87401490    -0.61100
C324        C  0.93336899  0.22990767  0.87890580     0.95700
C325        C  0.87070540  0.23176211  0.94176649     0.95500
N326        N  0.83428498  0.21439246  0.87339901    -0.06700
N327        N  0.81614890  0.21714742  0.87598834    -0.59200
N328        N  0.87459375  0.22582486  0.85216601    -0.04800
N329        N  0.88404288  0.23676959  0.84074708    -0.60500
N330        N  0.86513587  0.21330305  0.84273246    -0.06700
N331        N  0.86777774  0.21557580  0.82451655    -0.59500
N332        N  0.84394834  0.22691574  0.88260549    -0.04400
N333        N  0.83276552  0.23839879  0.89179742    -0.60500
Mn334      Mn  0.87431359  0.22662402  0.88262291     1.18400
C335        C  0.81553101  0.23209762  0.88758223     0.97800
C336        C  0.87972873  0.23019005  0.82360565     0.98400
N337        N  0.88330832  0.17004358  0.92285423    -0.06700
N338        N  0.88414800  0.16821734  0.94110571    -0.63000
N339        N  0.90482568  0.15568996  0.88370607    -0.05500
N340        N  0.91807749  0.14436259  0.87681317    -0.63700
N341        N  0.91285686  0.16941771  0.89296348    -0.06200
N342        N  0.93112255  0.16783149  0.89274013    -0.63300
N343        N  0.87387718  0.15627202  0.91510887    -0.05100
N344        N  0.86794211  0.14470917  0.92857648    -0.64000
Mn345      Mn  0.89845818  0.19131635  0.90786359     1.10700
C346        C  0.87458756  0.15255422  0.94470906     0.99000
C347        C  0.93438205  0.15235956  0.88270777     0.99100
N348        N  0.86316397  0.16972688  0.84299543    -0.06300
N349        N  0.86326243  0.16790306  0.82469164    -0.61600
N350        N  0.84102189  0.15691755  0.88243477    -0.05600
N351        N  0.82754113  0.14592222  0.88921256    -0.58400
N352        N  0.83327829  0.17091748  0.87308720    -0.06900
N353        N  0.81493779  0.16984292  0.87327319    -0.61200
N354        N  0.87235423  0.15588707  0.85117921    -0.05900
N355        N  0.87914376  0.14437273  0.83805767    -0.58400
Mn356      Mn  0.84865113  0.19210119  0.85773000     1.20200
Mn357      Mn  0.87296142  0.15491592  0.88312724     1.10100
Cl358      Cl  0.87351959  0.19086184  0.88284007    -0.86300
C359        C  0.87322774  0.15220585  0.82158034     0.96000
C360        C  0.81135204  0.15437082  0.88329608     0.95800
N361        N  0.70819993  0.36768370  0.84461846    -0.06500
N362        N  0.71138749  0.36879498  0.82638926    -0.58600
N363        N  0.72024290  0.34701523  0.88512291    -0.06200
N364        N  0.73134277  0.33555367  0.89442005    -0.60700
N365        N  0.70752116  0.33767617  0.87586346    -0.05800
N366        N  0.70973329  0.31949028  0.87850992    -0.58600
N367        N  0.72096529  0.37688984  0.85394887    -0.05500
N368        N  0.73304826  0.38468386  0.84238295    -0.61100
C369        C  0.72686488  0.37957832  0.82529622     0.95700
C370        C  0.72456838  0.31850164  0.89022719     0.95500
N371        N  0.70742646  0.38731210  0.92427735    -0.06700
N372        N  0.70948025  0.38509502  0.94254060    -0.59200
N373        N  0.72050418  0.40774845  0.88387422    -0.04800
N374        N  0.73205841  0.41881885  0.87477093    -0.60500
N375        N  0.70783158  0.41752477  0.89302660    -0.06700
N376        N  0.71063272  0.43564397  0.89053529    -0.59500
N377        N  0.72016329  0.37768743  0.91509107    -0.04400
N378        N  0.73110942  0.36851786  0.92680819    -0.60500
Mn379      Mn  0.72098011  0.37736871  0.88453214     1.18400
C380        C  0.72421910  0.37321277  0.94382520     0.97800
C381        C  0.72571050  0.43612499  0.87898598     0.98400
N382        N  0.66421278  0.33823209  0.87461324    -0.06700
N383        N  0.66253893  0.31996759  0.87458302    -0.63000
N384        N  0.65079090  0.37746379  0.85272151    -0.05500
N385        N  0.63953113  0.38431305  0.83946441    -0.63700
N386        N  0.66458902  0.36800201  0.84471680    -0.06200
N387        N  0.66304686  0.36806238  0.82640357    -0.63300
N388        N  0.65045781  0.34634626  0.88399721    -0.05100
N389        N  0.63909026  0.33318586  0.89076913    -0.64000
Mn390      Mn  0.68610593  0.35266495  0.85966609     1.10700
C391        C  0.64702028  0.31681672  0.88464410     0.99000
C392        C  0.64754859  0.37821544  0.82314200     0.99100
N393        N  0.66422476  0.41806907  0.89435714    -0.06300
N394        N  0.66259364  0.43636395  0.89439696    -0.61600
N395        N  0.65051248  0.37882573  0.91653787    -0.05600
N396        N  0.63960938  0.37156688  0.92991401    -0.58400
N397        N  0.66421550  0.38824666  0.92442004    -0.06900
N398        N  0.66299105  0.38772269  0.94276531    -0.61200
N399        N  0.65036688  0.41015312  0.88520096    -0.05900
N400        N  0.63895692  0.42349857  0.87861028    -0.58400
Mn401      Mn  0.68593108  0.40312751  0.90926000     1.20200
Mn402      Mn  0.64926733  0.37820903  0.88461413     1.10100
Cl403      Cl  0.68520859  0.37789452  0.88446326    -0.86300
C404        C  0.64698177  0.43977468  0.88458416     0.96000
C405        C  0.64776190  0.37737006  0.94621004     0.95800
N406        N  0.04004151  0.38659636  0.84187369    -0.06500
N407        N  0.03808257  0.38402676  0.82363535    -0.58600
N408        N  0.02576882  0.40740994  0.88191589    -0.06200
N409        N  0.01429885  0.41871417  0.89107918    -0.60700
N410        N  0.03840038  0.41703842  0.87269690    -0.05800
N411        N  0.03580718  0.43516024  0.87523848    -0.58600
N412        N  0.02746750  0.37699351  0.85120271    -0.05500
N413        N  0.01679458  0.36751162  0.83969786    -0.61100
C414        C  0.02359088  0.37195310  0.82261763     0.95700
C415        C  0.02079915  0.43592702  0.88678656     0.95500
N416        N  0.03927199  0.36744958  0.92153814    -0.06700
N417        N  0.03666742  0.36944915  0.93975409    -0.59200
N418        N  0.02786614  0.34628381  0.88134783    -0.04800
N419        N  0.01671784  0.33445158  0.87278221    -0.60500
N420        N  0.04083846  0.33724485  0.89076661    -0.06700
N421        N  0.03872312  0.31897273  0.88905050    -0.59500
N422        N  0.02631431  0.37651645  0.91213317    -0.04400
N423        N  0.01463902  0.38507340  0.92362929    -0.60500
Mn424      Mn  0.02628683  0.37682867  0.88163268     1.18400
C425        C  0.02131209  0.38056636  0.94073541     0.97800
C426        C  0.02371248  0.31752853  0.87765839     0.98400
N427        N  0.08149005  0.41842734  0.87280326    -0.06700
N428        N  0.08161756  0.43674923  0.87393095    -0.63000
N429        N  0.09732212  0.37991260  0.85061643    -0.05500
N430        N  0.10914921  0.37359924  0.83753359    -0.63700
N431        N  0.08347176  0.38903569  0.84240166    -0.06200
N432        N  0.08559688  0.38939407  0.82411728    -0.63300
N433        N  0.09551952  0.41085287  0.88218429    -0.05100
N434        N  0.10566473  0.42448069  0.88984300    -0.64000
Mn435      Mn  0.06084520  0.40303491  0.85710323     1.10700
C436        C  0.09660370  0.44056582  0.88448869     0.99000
C437        C  0.10150962  0.37976323  0.82107645     0.99100
N438        N  0.08414370  0.33853411  0.89207385    -0.06300
N439        N  0.08619587  0.32028395  0.89195950    -0.61600
N440        N  0.09622788  0.37786204  0.91461817    -0.05600
N441        N  0.10667858  0.38506165  0.92831857    -0.58400
N442        N  0.08248095  0.36815476  0.92217538    -0.06900
N443        N  0.08315124  0.36851377  0.94052457    -0.61200
N444        N  0.09777906  0.34689628  0.88284527    -0.05900
N445        N  0.10942597  0.33388283  0.87597524    -0.58400
Mn446      Mn  0.06173512  0.35260060  0.90685018     1.20200
Mn447      Mn  0.09802625  0.37891200  0.88257494     1.10100
Cl448      Cl  0.06207591  0.37785356  0.88201621    -0.86300
C449        C  0.10180530  0.31734985  0.88193517     0.96000
C450        C  0.09812764  0.37900104  0.94443344     0.95800
N451        N  0.88290262  0.34134966  0.04828836    -0.06500
N452        N  0.88127787  0.32317367  0.04535454    -0.58600
N453        N  0.90384945  0.38108748  0.03544784    -0.06200
N454        N  0.91522111  0.38966307  0.02373117    -0.60700
N455        N  0.91337442  0.37176824  0.04814357    -0.05800
N456        N  0.93155889  0.37360545  0.04525172    -0.58600
N457        N  0.87340829  0.35087354  0.03571805    -0.05500
N458        N  0.86496823  0.33953351  0.02402281    -0.61100
C459        C  0.86992125  0.32236424  0.03025800     0.95700
C460        C  0.93240506  0.38494285  0.03006896     0.95500
N461        N  0.86448861  0.42112143  0.04878608    -0.06700
N462        N  0.86734666  0.43928544  0.04672973    -0.59200
N463        N  0.84270884  0.38158267  0.03586900    -0.04800
N464        N  0.83097824  0.37321395  0.02444127    -0.60500
N465        N  0.83352648  0.39095860  0.04877808    -0.06700
N466        N  0.81526760  0.38937722  0.04639374    -0.59500
N467        N  0.87362003  0.41167862  0.03588962    -0.04400
N468        N  0.88306927  0.42302605  0.02486292    -0.60500
Mn469      Mn  0.87333756  0.38127470  0.03523246     1.18400
C470        C  0.87906601  0.44013462  0.03179722     0.97800
C471        C  0.81397296  0.37817635  0.03121455     0.98400
N472        N  0.91373257  0.37064029  0.09173548    -0.06700
N473        N  0.93202487  0.37024652  0.09318838    -0.63000
N474        N  0.87453083  0.34865436  0.10567089    -0.05500
N475        N  0.86749202  0.33522064  0.11663536    -0.63700
N476        N  0.88391122  0.34082368  0.09175842    -0.06200
N477        N  0.88364258  0.32249173  0.09293278    -0.63300
N478        N  0.90591924  0.37972323  0.10584706    -0.05100
N479        N  0.91938710  0.38577374  0.11729318    -0.64000
Mn480      Mn  0.89873982  0.35592207  0.07000834     1.10700
C481        C  0.93564480  0.37964510  0.10899856     0.99000
C482        C  0.87342277  0.31896485  0.10830868     0.99100
N483        N  0.83388179  0.39092278  0.09224453    -0.06300
N484        N  0.81558507  0.39079677  0.09380419    -0.61600
N485        N  0.87291547  0.41260407  0.10599236    -0.05600
N486        N  0.87911888  0.42595865  0.11744379    -0.58400
N487        N  0.86363468  0.42053921  0.09210035    -0.06900
N488        N  0.86322700  0.43878732  0.09368503    -0.61200
N489        N  0.84189177  0.38142970  0.10597161    -0.05900
N490        N  0.82861780  0.37449736  0.11719611    -0.58400
Mn491      Mn  0.84864011  0.40612621  0.07049580     1.20200
Mn492      Mn  0.87383569  0.38061719  0.10716946     1.10100
Cl493      Cl  0.87363498  0.38096287  0.07109684    -0.86300
C494        C  0.81226106  0.38059119  0.10924884     0.96000
C495        C  0.87284706  0.44221997  0.10934753     0.95800
N496        N  0.83487294  0.54316154  0.89162472    -0.06500
N497        N  0.81665623  0.54038657  0.89019401    -0.58600
N498        N  0.87493065  0.52998925  0.91253092    -0.06200
N499        N  0.88456250  0.51903523  0.92387186    -0.60700
N500        N  0.86572242  0.54278286  0.92202968    -0.05800
N501        N  0.86870006  0.54076706  0.94018014    -0.58600
N502        N  0.84419390  0.53043909  0.88214790    -0.05500
N503        N  0.83266775  0.51879372  0.87384699    -0.61100
C504        C  0.81558859  0.52521499  0.87892313     0.95700
C505        C  0.88056365  0.52596675  0.94101902     0.95500
N506        N  0.91464244  0.54257135  0.87300067    -0.06700
N507        N  0.93276273  0.54024589  0.87594886    -0.59200
N508        N  0.87451456  0.53094370  0.85168210    -0.04800
N509        N  0.86540150  0.51993919  0.84017956    -0.60500
N510        N  0.88404958  0.54356462  0.84235164    -0.06700
N511        N  0.88183338  0.54129948  0.82411782    -0.59500
N512        N  0.90501047  0.52989763  0.88212292    -0.04400
N513        N  0.91619950  0.51874576  0.89166526    -0.60500
Mn514      Mn  0.87464669  0.52979654  0.88206028     1.18400
C515        C  0.93339515  0.52540915  0.88773555     0.97800
C516        C  0.87002731  0.52660049  0.82309965     0.98400
N517        N  0.86505817  0.58584379  0.92242553    -0.06700
N518        N  0.86555852  0.58646704  0.94076732    -0.63000
N519        N  0.84328296  0.60053785  0.88331194    -0.05500
N520        N  0.82987855  0.61178656  0.87649544    -0.63700
N521        N  0.83530845  0.58650948  0.89231511    -0.06200
N522        N  0.81699458  0.58777332  0.89185286    -0.63300
N523        N  0.87452976  0.59973227  0.91483692    -0.05100
N524        N  0.88169960  0.61023983  0.92850305    -0.64000
Mn525      Mn  0.84995045  0.56463352  0.90732445     1.10700
C526        C  0.87587464  0.60156464  0.94462529     0.99000
C527        C  0.81354382  0.60340970  0.88205252     0.99100
N528        N  0.88581847  0.58693999  0.84282539    -0.06300
N529        N  0.88632708  0.58884908  0.82456420    -0.61600
N530        N  0.90759584  0.59970184  0.88225093    -0.05600
N531        N  0.92111622  0.61052184  0.88916765    -0.58400
N532        N  0.91538306  0.58583226  0.87276560    -0.06900
N533        N  0.93372030  0.58686259  0.87292055    -0.61200
N534        N  0.87658990  0.60083881  0.85086031    -0.05900
N535        N  0.87045276  0.61257203  0.83760482    -0.58400
Mn536      Mn  0.90023292  0.56470731  0.85743301     1.20200
Mn537      Mn  0.87547209  0.60156159  0.88285310     1.10100
Cl538      Cl  0.87504345  0.56557591  0.88235719    -0.86300
C539        C  0.87677613  0.60471109  0.82127129     0.96000
C540        C  0.93735928  0.60214975  0.88312201     0.95800
N541        N  0.84158233  0.87851745  0.22836219    -0.06500
N542        N  0.82946052  0.88689281  0.23958698    -0.58600
N543        N  0.86359115  0.83882585  0.21601368    -0.06200
N544        N  0.86482535  0.82062680  0.21909746    -0.60700
N545        N  0.87262686  0.84815330  0.22892542    -0.05800
N546        N  0.88047185  0.83656997  0.24100629    -0.58600
N547        N  0.83276120  0.86896979  0.21544602    -0.05500
N548        N  0.81444185  0.87044098  0.21761801    -0.61100
C549        C  0.81264924  0.88176739  0.23265445     0.95700
C550        C  0.87554651  0.81951411  0.23463330     0.95500
N551        N  0.87318923  0.84722812  0.15877491    -0.06700
N552        N  0.88061317  0.83408876  0.14770311    -0.59200
N553        N  0.83344198  0.86842132  0.17228622    -0.04800
N554        N  0.81515483  0.86832027  0.17086266    -0.60500
N555        N  0.84125548  0.87798473  0.15854542    -0.06700
N556        N  0.82781268  0.88474811  0.14739215    -0.59500
N557        N  0.86396038  0.83910558  0.17257591    -0.04400
N558        N  0.86474697  0.82083011  0.17128334    -0.60500
Mn559      Mn  0.84828036  0.85359619  0.19402343     1.18400
C560        C  0.87509164  0.81770873  0.15590788     0.97800
C561        C  0.81158910  0.87845742  0.15545216     0.98400
N562        N  0.90311925  0.87884620  0.22906935    -0.06700
N563        N  0.91470326  0.87021798  0.24061677    -0.63000
N564        N  0.88162762  0.91879641  0.21621158    -0.05500
N565        N  0.88019013  0.93699383  0.21933755    -0.63700
N566        N  0.87219623  0.90934887  0.22886629    -0.06200
N567        N  0.86398795  0.92081048  0.24081386    -0.63300
N568        N  0.91250411  0.88826246  0.21634447    -0.05100
N569        N  0.93073682  0.88641934  0.21903851    -0.64000
Mn570      Mn  0.87236798  0.87874798  0.22934440     1.10700
C571        C  0.93184508  0.87501016  0.23415622     0.99000
C572        C  0.86901491  0.93794985  0.23466667     0.99100
N573        N  0.87328301  0.91083874  0.15886245    -0.06300
N574        N  0.86616152  0.92410325  0.14770400    -0.61600
N575        N  0.91291393  0.88918286  0.17283802    -0.05600
N576        N  0.93124788  0.88906511  0.17152681    -0.58400
N577        N  0.90517246  0.87987850  0.15895455    -0.06900
N578        N  0.91866902  0.87303912  0.14786978    -0.61200
N579        N  0.88254455  0.91881923  0.17263799    -0.05900
N580        N  0.88214632  0.93711225  0.17114831    -0.58400
Mn581      Mn  0.87321746  0.87901305  0.15749903     1.20200
Mn582      Mn  0.89764317  0.90402252  0.19446850     1.10100
Cl583      Cl  0.87289679  0.87886973  0.19353339    -0.86300
C584        C  0.87194370  0.94043962  0.15573496     0.96000
C585        C  0.93485591  0.87901825  0.15608326     0.95800
N586        N  0.91230894  0.71411357  0.39462671    -0.06500
N587        N  0.93039750  0.71747114  0.39271509    -0.58600
N588        N  0.87207251  0.72502589  0.41634884    -0.06200
N589        N  0.86278014  0.73590517  0.42802308    -0.60700
N590        N  0.88176187  0.71234464  0.42551928    -0.05800
N591        N  0.87942908  0.71437696  0.44379979    -0.58600
N592        N  0.90240494  0.72669445  0.38554429    -0.05500
N593        N  0.91338722  0.73880643  0.37705917    -0.61100
C594        C  0.93076523  0.73283221  0.38158775     0.95700
C595        C  0.86742855  0.72908061  0.44502827     0.95500
N596        N  0.83264134  0.71170142  0.37689435    -0.06700
N597        N  0.81439630  0.71363803  0.37923485    -0.59200
N598        N  0.87168817  0.72625309  0.35533790    -0.04800
N599        N  0.87971873  0.73827406  0.34387999    -0.60500
N600        N  0.86267254  0.71342952  0.34588240    -0.06700
N601        N  0.86415933  0.71650824  0.32768725    -0.59500
N602        N  0.84165083  0.72453203  0.38632789    -0.04400
N603        N  0.82987505  0.73538925  0.39552844    -0.60500
Mn604      Mn  0.87196881  0.72613119  0.38586790     1.18400
C605        C  0.81300059  0.72834857  0.39103875     0.97800
C606        C  0.87495047  0.73195295  0.32673491     0.98400
N607        N  0.88429334  0.66903633  0.42454341    -0.06700
N608        N  0.88461757  0.66721579  0.44281753    -0.63000
N609        N  0.90608485  0.65674873  0.38488076    -0.05500
N610        N  0.91972020  0.64599743  0.37782357    -0.63700
N611        N  0.91359693  0.67065885  0.39431948    -0.06200
N612        N  0.93190841  0.66972408  0.39402529    -0.63300
N613        N  0.87529993  0.65511227  0.41653387    -0.05100
N614        N  0.86912068  0.64347741  0.42984896    -0.64000
Mn615      Mn  0.89826338  0.69151866  0.41000351     1.10700
C616        C  0.87518261  0.65140919  0.44618385     0.99000
C617        C  0.93573786  0.65447483  0.38377294     0.99100
N618        N  0.86349793  0.67000519  0.34484164    -0.06300
N619        N  0.86349312  0.66896979  0.32648312    -0.61600
N620        N  0.84238623  0.65459860  0.38404520    -0.05600
N621        N  0.82950354  0.64256920  0.39023835    -0.58400
N622        N  0.83394344  0.66840806  0.37506740    -0.06900
N623        N  0.81574695  0.66615287  0.37479424    -0.61200
N624        N  0.87344609  0.65634116  0.35240844    -0.05900
N625        N  0.88064072  0.64572539  0.33873137    -0.58400
Mn626      Mn  0.84794499  0.69087715  0.36043981     1.20200
Mn627      Mn  0.87434050  0.65440727  0.38446456     1.10100
Cl628      Cl  0.87317040  0.69035880  0.38517174    -0.86300
C629        C  0.87416861  0.65394353  0.32261932     0.96000
C630        C  0.81292049  0.65016855  0.38423697     0.95800
N631        N  0.70725462  0.86681207  0.34204069    -0.06500
N632        N  0.70949485  0.86891344  0.32375693    -0.58600
N633        N  0.71985515  0.84548330  0.38198928    -0.06200
N634        N  0.73085836  0.83380718  0.39113517    -0.60700
N635        N  0.70690643  0.83636213  0.37284177    -0.05800
N636        N  0.70888971  0.81814479  0.37530991    -0.58600
N637        N  0.72014055  0.87603185  0.35121663    -0.05500
N638        N  0.73136052  0.88479579  0.33946348    -0.61100
C639        C  0.72451386  0.88027326  0.32243074     0.95700
C640        C  0.72381111  0.81689153  0.38685072     0.95500
N641        N  0.70777486  0.88481378  0.42208648    -0.06700
N642        N  0.71020354  0.88215520  0.44026988    -0.59200
N643        N  0.72095964  0.90632083  0.38220067    -0.04800
N644        N  0.73308495  0.91763988  0.37420412    -0.60500
N645        N  0.70844191  0.91585647  0.39178659    -0.06700
N646        N  0.71180548  0.93399284  0.39065392    -0.59500
N647        N  0.72040481  0.87546271  0.41245557    -0.04400
N648        N  0.73159699  0.86606123  0.42373359    -0.60500
Mn649      Mn  0.72088119  0.87586049  0.38188959     1.18400
C650        C  0.72505001  0.87029912  0.44098786     0.97800
C651        C  0.72713176  0.93481277  0.37951681     0.98400
N652        N  0.66358945  0.83706515  0.37249975    -0.06700
N653        N  0.66199514  0.81877603  0.37291487    -0.63000
N654        N  0.65045763  0.87676356  0.35065677    -0.05500
N655        N  0.63957564  0.88421492  0.33739316    -0.63700
N656        N  0.66400001  0.86699786  0.34265090    -0.06200
N657        N  0.66268891  0.86740209  0.32435893    -0.63300
N658        N  0.64995313  0.84532620  0.38194108    -0.05100
N659        N  0.63875195  0.83223334  0.38917787    -0.64000
Mn660      Mn  0.68541364  0.85152247  0.35724955     1.10700
C661        C  0.64663242  0.81572925  0.38329140     0.99000
C662        C  0.64756865  0.87808651  0.32106553     0.99100
N663        N  0.66499802  0.91686083  0.39247205    -0.06300
N664        N  0.66363795  0.93517426  0.39278219    -0.61600
N665        N  0.65037592  0.87799292  0.41423773    -0.05600
N666        N  0.63872952  0.87170951  0.42743373    -0.58400
N667        N  0.66427194  0.88699962  0.42225268    -0.06900
N668        N  0.66239317  0.88727819  0.44053699    -0.61200
N669        N  0.65099071  0.90929161  0.38322323    -0.05900
N670        N  0.63974723  0.92290944  0.37691281    -0.58400
Mn671      Mn  0.68637339  0.90137563  0.40741124     1.20200
Mn672      Mn  0.64918029  0.87736013  0.38248076     1.10100
Cl673      Cl  0.68512816  0.87658205  0.38223892    -0.86300
C674        C  0.64800881  0.93898296  0.38310798     0.96000
C675        C  0.64661273  0.87773242  0.44374548     0.95800
N676        N  0.04005753  0.89056543  0.34191271    -0.06500
N677        N  0.03751902  0.88856607  0.32367283    -0.58600
N678        N  0.02757646  0.91271866  0.38144959    -0.06200
N679        N  0.01628429  0.92464982  0.38991713    -0.60700
N680        N  0.04068848  0.92160214  0.37212385    -0.05800
N681        N  0.03847968  0.93992600  0.37384726    -0.58600
N682        N  0.02697814  0.88172450  0.35134295    -0.05500
N683        N  0.01533687  0.87336008  0.33981480    -0.61100
C684        C  0.02210150  0.87769410  0.32265451     0.95700
C685        C  0.02324909  0.94149669  0.38510505     0.95500
N686        N  0.03875144  0.87340939  0.42243042    -0.06700
N687        N  0.03577367  0.87550592  0.44060473    -0.59200
N688        N  0.02559626  0.85166584  0.38285780    -0.04800
N689        N  0.01364896  0.84022759  0.37480918    -0.60500
N690        N  0.03798963  0.84219984  0.39264653    -0.06700
N691        N  0.03474021  0.82406534  0.39161833    -0.59500
N692        N  0.02630053  0.88289700  0.41272724    -0.04400
N693        N  0.01467241  0.89184401  0.42400277    -0.60500
Mn694      Mn  0.02610520  0.88224810  0.38203787     1.18400
C695        C  0.02079540  0.88717451  0.44130362     0.97800
C696        C  0.01960817  0.82310295  0.38034994     0.98400
N697        N  0.08438755  0.91989258  0.37186110    -0.06700
N698        N  0.08635470  0.93815016  0.37227474    -0.63000
N699        N  0.09689589  0.87963960  0.35055417    -0.05500
N700        N  0.10799996  0.87198521  0.33752526    -0.63700
N701        N  0.08363166  0.88951452  0.34222430    -0.06200
N702        N  0.08539552  0.88894247  0.32390535    -0.63300
N703        N  0.09768130  0.91138291  0.38152843    -0.05100
N704        N  0.10896664  0.92422218  0.38894068    -0.64000
Mn705      Mn  0.06224137  0.90569701  0.35674868     1.10700
C706        C  0.10156563  0.94087539  0.38289162     0.99000
C707        C  0.10047284  0.87802558  0.32095412     0.99100
N708        N  0.08131218  0.84031699  0.39334850    -0.06300
N709        N  0.08192592  0.82192664  0.39312732    -0.61600
N710        N  0.09641906  0.87945082  0.41444474    -0.05600
N711        N  0.10795249  0.88602689  0.42752129    -0.58400
N712        N  0.08227236  0.87092587  0.42268128    -0.06900
N713        N  0.08383613  0.87133126  0.44099784    -0.61200
N714        N  0.09535014  0.84759273  0.38379079    -0.05900
N715        N  0.10587049  0.83375610  0.37678094    -0.58400
Mn716      Mn  0.06010939  0.85651318  0.40804881     1.20200
Mn717      Mn  0.09780539  0.87944624  0.38255169     1.10100
Cl718      Cl  0.06187408  0.88096632  0.38231591    -0.86300
C719        C  0.09714832  0.81783000  0.38282302     0.96000
C720        C  0.09971703  0.88076168  0.44402099     0.95800
N721        N  0.83384879  0.04509614  0.39459613    -0.06500
N722        N  0.81568138  0.04186435  0.39346794    -0.58600
N723        N  0.87452679  0.03339809  0.41488158    -0.06200
N724        N  0.88327661  0.02188115  0.42634807    -0.60700
N725        N  0.86495942  0.04598466  0.42431399    -0.05800
N726        N  0.86678580  0.04324683  0.44253060    -0.58600
N727        N  0.84339532  0.03241794  0.38526112    -0.05500
N728        N  0.83207007  0.02034275  0.37737584    -0.61100
C729        C  0.81490782  0.02643505  0.38254547     0.95700
C730        C  0.87840393  0.02826583  0.44348607     0.95500
N731        N  0.91320757  0.04626858  0.37378333    -0.06700
N732        N  0.93152227  0.04432625  0.37571392    -0.59200
N733        N  0.87301737  0.03257976  0.35386223    -0.04800
N734        N  0.86432719  0.02072782  0.34283514    -0.60500
N735        N  0.88174501  0.04535336  0.34396363    -0.06700
N736        N  0.87935975  0.04238342  0.32583945    -0.59500
N737        N  0.90433206  0.03359875  0.38366181    -0.04400
N738        N  0.91627933  0.02281419  0.39271059    -0.60500
Mn739      Mn  0.87386742  0.03251026  0.38440605     1.18400
C740        C  0.93313021  0.02969863  0.38767783     0.97800
C741        C  0.86833669  0.02704052  0.32543774     0.98400
N742        N  0.86326515  0.08915066  0.42378584    -0.06700
N743        N  0.86330482  0.09067667  0.44206135    -0.63000
N744        N  0.84040673  0.10230875  0.38493220    -0.05500
N745        N  0.82663368  0.11305920  0.37814155    -0.63700
N746        N  0.83299159  0.08845264  0.39463904    -0.06200
N747        N  0.81466300  0.08946466  0.39487026    -0.63300
N748        N  0.87212828  0.10315983  0.41569521    -0.05100
N749        N  0.87850416  0.11464357  0.42896760    -0.64000
Mn750      Mn  0.84853922  0.06722531  0.40953932     1.10700
C751        C  0.87276724  0.10643484  0.44536873     0.99000
C752        C  0.81066585  0.10468590  0.38461208     0.99100
N753        N  0.88176143  0.08880937  0.34362207    -0.06300
N754        N  0.88135451  0.09007476  0.32531309    -0.61600
N755        N  0.90440534  0.10298975  0.38243074    -0.05600
N756        N  0.91783156  0.11368954  0.38968549    -0.58400
N757        N  0.91228872  0.08934778  0.37270390    -0.06900
N758        N  0.93061239  0.09044019  0.37295886    -0.61200
N759        N  0.87254291  0.10273815  0.35161646    -0.05900
N760        N  0.86552746  0.11387977  0.33826705    -0.58400
Mn761      Mn  0.89746054  0.06747960  0.35818859     1.20200
Mn762      Mn  0.87236987  0.10417131  0.38365140     1.10100
Cl763      Cl  0.87302234  0.06822788  0.38390747    -0.86300
C764        C  0.87127004  0.10555787  0.32193716     0.96000
C765        C  0.93410600  0.10549253  0.38349812     0.95800
N766        N  0.88310672  0.83871808  0.54873871    -0.06500
N767        N  0.88062255  0.82048796  0.54663131    -0.58600
N768        N  0.90340289  0.87932371  0.53590069    -0.06200
N769        N  0.91469813  0.88866109  0.52468898    -0.60700
N770        N  0.91300679  0.87020880  0.54868648    -0.05800
N771        N  0.93114639  0.87300010  0.54641551    -0.58600
N772        N  0.87369770  0.84804537  0.53597448    -0.05500
N773        N  0.86446643  0.83659348  0.52502551    -0.61100
C774        C  0.86886152  0.81950800  0.53180761     0.95700
C775        C  0.93189640  0.88463175  0.53145106     0.95500
N776        N  0.86179158  0.91773475  0.54822514    -0.06700
N777        N  0.86325990  0.93599477  0.54589226    -0.59200
N778        N  0.84224400  0.87731230  0.53570815    -0.04800
N779        N  0.83112598  0.86843904  0.52405412    -0.60500
N780        N  0.83244255  0.88616551  0.54855776    -0.06700
N781        N  0.81432049  0.88370725  0.54582808    -0.59500
N782        N  0.87170113  0.90873942  0.53559732    -0.04400
N783        N  0.88030984  0.92057302  0.52438963    -0.60500
Mn784      Mn  0.87283662  0.87836587  0.53525795     1.18400
C785        C  0.87493194  0.93744609  0.53104221     0.97800
C786        C  0.81380308  0.87249899  0.53055952     0.98400
N787        N  0.91307655  0.86940945  0.59210544    -0.06700
N788        N  0.93137081  0.86962204  0.59394367    -0.63000
N789        N  0.87419698  0.84682711  0.60592027    -0.05500
N790        N  0.86698350  0.83324756  0.61660545    -0.63700
N791        N  0.88387235  0.83911662  0.59213519    -0.06200
N792        N  0.88360264  0.82081219  0.59308706    -0.63300
N793        N  0.90472088  0.87883174  0.60567830    -0.05100
N794        N  0.91769460  0.88591644  0.61700676    -0.64000
Mn795      Mn  0.89858962  0.85405779  0.57041803     1.10700
C796        C  0.93424907  0.87994904  0.60933086     0.99000
C797        C  0.87313403  0.81708226  0.60822336     0.99100
N798        N  0.83256046  0.88764740  0.59222442    -0.06300
N799        N  0.81429815  0.88756457  0.59412820    -0.61600
N800        N  0.87142079  0.91089703  0.60507895    -0.05600
N801        N  0.87900585  0.92467331  0.61511805    -0.58400
N802        N  0.86176120  0.91831005  0.59115764    -0.06900
N803        N  0.86266010  0.93665663  0.59123949    -0.61200
N804        N  0.84086538  0.87893144  0.60626043    -0.05900
N805        N  0.82783291  0.87257098  0.61810479    -0.58400
Mn806      Mn  0.84679423  0.90262162  0.57009614     1.20200
Mn807      Mn  0.87280044  0.87888673  0.60706087     1.10100
Cl808      Cl  0.87274175  0.87843873  0.57106511    -0.86300
C809        C  0.81131629  0.87816872  0.61011307     0.96000
C810        C  0.87332125  0.94068044  0.60611104     0.95800
N811        N  0.12331926  0.10098121  0.48095754    -0.06500
N812        N  0.11449227  0.08957937  0.49248603    -0.58600
N813        N  0.16299063  0.12249432  0.46732644    -0.06200
N814        N  0.18117509  0.12471491  0.46986637    -0.60700
N815        N  0.15343003  0.13203170  0.47985881    -0.05800
N816        N  0.16479844  0.14112434  0.49110967    -0.58600
N817        N  0.13288530  0.09145519  0.46844247    -0.05500
N818        N  0.13094996  0.07329273  0.47118351    -0.61100
C819        C  0.11935650  0.07241031  0.48615371     0.95700
C820        C  0.18202218  0.13649423  0.48467836     0.95500
N821        N  0.15483801  0.12860329  0.40971140    -0.06700
N822        N  0.16807173  0.13456455  0.39790488    -0.59200
N823        N  0.13348110  0.08982967  0.42522559    -0.04800
N824        N  0.13337361  0.07145294  0.42454801    -0.60500
N825        N  0.12404083  0.09727615  0.41116221    -0.06700
N826        N  0.11719725  0.08356194  0.40058213    -0.59500
N827        N  0.16288988  0.11980592  0.42385680    -0.04400
N828        N  0.18115256  0.11938749  0.42203442    -0.60500
Mn829      Mn  0.14833323  0.10569584  0.44623218     1.18400
C830        C  0.18439752  0.12858354  0.40600182     0.97800
C831        C  0.12323381  0.06754624  0.40928603     0.98400
N832        N  0.12239138  0.16194511  0.47864974    -0.06700
N833        N  0.13162454  0.17379800  0.48920224    -0.63000
N834        N  0.08277849  0.13988636  0.46666804    -0.05500
N835        N  0.06460764  0.13725734  0.46877100    -0.63700
N836        N  0.09219630  0.13101891  0.47975665    -0.06200
N837        N  0.08071689  0.12191945  0.49098280    -0.63300
N838        N  0.11291982  0.17086470  0.46563451    -0.05100
N839        N  0.11528825  0.18914974  0.46718346    -0.64000
Mn840      Mn  0.12279725  0.13151668  0.48038735     1.10700
C841        C  0.12711422  0.19065706  0.48188156     0.99000
C842        C  0.06361996  0.12593479  0.48391826     0.99100
N843        N  0.09093960  0.12951320  0.40973846    -0.06300
N844        N  0.07781223  0.12215531  0.39872291    -0.61600
N845        N  0.11198211  0.16935816  0.42230938    -0.05600
N846        N  0.11148447  0.18758950  0.42030133    -0.58400
N847        N  0.12160803  0.16122386  0.40873977    -0.06900
N848        N  0.12804045  0.17442199  0.39711860    -0.61200
N849        N  0.08274609  0.13913772  0.42326421    -0.05900
N850        N  0.06444722  0.13867360  0.42179559    -0.58400
Mn851      Mn  0.12289679  0.12915310  0.40856020     1.20200
Mn852      Mn  0.09733938  0.15506583  0.44447188     1.10100
Cl853      Cl  0.12286976  0.13037523  0.44454616    -0.86300
C854        C  0.06133590  0.12811380  0.40662420     0.96000
C855        C  0.12147086  0.19079537  0.40474930     0.95800
N856        N  0.62331579  0.09790826  0.28696961    -0.06500
N857        N  0.63167993  0.08645085  0.27513816    -0.58600
N858        N  0.58311817  0.11840600  0.29960366    -0.06200
N859        N  0.56491263  0.11957225  0.29657672    -0.60700
N860        N  0.59236700  0.12794939  0.28691562    -0.05800
N861        N  0.58078746  0.13603764  0.27504654    -0.58600
N862        N  0.61411657  0.08846428  0.29977332    -0.05500
N863        N  0.61580669  0.07029566  0.29692747    -0.61100
C864        C  0.62692648  0.06935374  0.28161646     0.95700
C865        C  0.56376601  0.13075552  0.28131042     0.95500
N866        N  0.59038855  0.12687888  0.35693794    -0.06700
N867        N  0.57664504  0.13372946  0.36772576    -0.59200
N868        N  0.61331593  0.08806029  0.34305473    -0.04800
N869        N  0.61389342  0.06975670  0.34409748    -0.60500
N870        N  0.62228422  0.09581672  0.35713625    -0.06700
N871        N  0.62923868  0.08231396  0.36817331    -0.59500
N872        N  0.58292398  0.11769784  0.34283467    -0.04400
N873        N  0.56460999  0.11802175  0.34358891    -0.60500
Mn874      Mn  0.59816288  0.10293471  0.32140424     1.18400
C875        C  0.56064031  0.12795303  0.35899476     0.97800
C876        C  0.62376621  0.06608757  0.35963309     0.98400
N877        N  0.62202193  0.15890909  0.28719225    -0.06700
N878        N  0.61294042  0.17031029  0.27582874    -0.63000
N879        N  0.66238401  0.13811163  0.29992668    -0.05500
N880        N  0.68065121  0.13641199  0.29724346    -0.63700
N881        N  0.65322755  0.12874829  0.28713150    -0.06200
N882        N  0.66490564  0.12029401  0.27555987    -0.63300
N883        N  0.63095069  0.16836915  0.30008394    -0.05100
N884        N  0.62830979  0.18656006  0.29768583    -0.64000
Mn885      Mn  0.62278205  0.12840347  0.28656963     1.10700
C886        C  0.61692620  0.18747092  0.28257389     0.99000
C887        C  0.68192448  0.12512096  0.28206898     0.99100
N888        N  0.65420452  0.12896308  0.35740036    -0.06300
N889        N  0.66768088  0.12240834  0.36863262    -0.61600
N890        N  0.63161049  0.16782430  0.34374494    -0.05600
N891        N  0.63164118  0.18605970  0.34569274    -0.58400
N892        N  0.62259547  0.15961278  0.35765715    -0.06900
N893        N  0.61618318  0.17266650  0.36945049    -0.61200
N894        N  0.66192525  0.13845722  0.34352711    -0.05900
N895        N  0.68019290  0.13865996  0.34495128    -0.58400
Mn896      Mn  0.62233308  0.12776566  0.35861187     1.20200
Mn897      Mn  0.64696846  0.15347890  0.32181817     1.10100
Cl898      Cl  0.62259879  0.12816510  0.32246772    -0.86300
C899        C  0.68383563  0.12869842  0.36046681     0.96000
C900        C  0.62204466  0.18909214  0.36156703     0.95800
N901        N  0.12202991  0.85184945  0.10077200    -0.06500
N902        N  0.12902241  0.86304878  0.08754974    -0.58600
N903        N  0.08343007  0.83749085  0.12348417    -0.06200
N904        N  0.06514129  0.83930347  0.12366897    -0.60700
N905        N  0.09154004  0.85123431  0.13267805    -0.05800
N906        N  0.07836644  0.86275846  0.13942650    -0.58600
N907        N  0.11248754  0.83830446  0.09275557    -0.05500
N908        N  0.11260331  0.83995993  0.07445709    -0.61100
C909        C  0.12287244  0.85526754  0.07123177     0.95700
C910        C  0.06196592  0.85491432  0.13360353     0.95500
N911        N  0.09400364  0.78088619  0.13190068    -0.06700
N912        N  0.08294343  0.76891917  0.14054463    -0.59200
N913        N  0.11364039  0.79495235  0.09146814    -0.04800
N914        N  0.11537803  0.79288907  0.07312092    -0.60500
N915        N  0.12344577  0.78213164  0.10031455    -0.06700
N916        N  0.13222653  0.77114062  0.08838987    -0.59500
N917        N  0.08412117  0.79383410  0.12328128    -0.04400
N918        N  0.06603123  0.79090775  0.12569598    -0.60500
Mn919      Mn  0.09808289  0.81617115  0.10750160     1.18400
C920        C  0.06558874  0.77540389  0.13660824     0.97800
C921        C  0.12713762  0.77802132  0.07155876     0.98400
N922        N  0.12504821  0.85055340  0.16442700    -0.06700
N923        N  0.11849553  0.86147161  0.17813250    -0.63000
N924        N  0.16368061  0.83778560  0.14094978    -0.05500
N925        N  0.18191640  0.83960736  0.14075816    -0.63700
N926        N  0.15531720  0.85177969  0.13222707    -0.06200
N927        N  0.16828756  0.86353983  0.12573022    -0.63300
N928        N  0.13476156  0.83663508  0.17184781    -0.05100
N929        N  0.13513240  0.83773985  0.19022135    -0.64000
Mn930      Mn  0.12343989  0.85259700  0.13255536     1.10700
C931        C  0.12499882  0.85313098  0.19413499     0.99000
C932        C  0.18483071  0.85554052  0.13129246     0.99100
N933        N  0.15514282  0.78208813  0.12923949    -0.06300
N934        N  0.16679119  0.77126413  0.11974318    -0.61600
N935        N  0.13503444  0.79320656  0.17038642    -0.05600
N936        N  0.13367195  0.79014193  0.18858837    -0.58400
N937        N  0.12573736  0.78054897  0.16100328    -0.06900
N938        N  0.11762929  0.76865148  0.17248759    -0.61200
N939        N  0.16437936  0.79482080  0.13859825    -0.05900
N940        N  0.18256776  0.79292539  0.13583153    -0.58400
Mn941      Mn  0.12459000  0.78086761  0.13062128     1.20200
Mn942      Mn  0.14967493  0.81559289  0.15571000     1.10100
Cl943      Cl  0.12384116  0.81664781  0.13165367    -0.86300
C944        C  0.18379889  0.77826926  0.12394433     0.96000
C945        C  0.12266123  0.77486183  0.18957443     0.95800
N946        N  0.09198677  0.62813203  0.35763705    -0.06500
N947        N  0.07837636  0.63527325  0.36839347    -0.58600
N948        N  0.11425414  0.58886234  0.34403197    -0.06200
N949        N  0.11405481  0.57060044  0.34587319    -0.60700
N950        N  0.12330664  0.59688682  0.35792238    -0.05800
N951        N  0.12964991  0.58366462  0.36956676    -0.58600
N952        N  0.08436276  0.61858083  0.34386841    -0.05500
N953        N  0.06607592  0.61886601  0.34485836    -0.61100
C954        C  0.06229810  0.62920602  0.36001952     0.95700
C955        C  0.12364468  0.56735814  0.36165402     0.95500
N956        N  0.12364303  0.59825722  0.28744933    -0.06700
N957        N  0.13148764  0.58686309  0.27518317    -0.59200
N958        N  0.08389135  0.61911967  0.30069396    -0.04800
N959        N  0.06567363  0.61998880  0.29756722    -0.60500
N960        N  0.09306118  0.62881277  0.28805330    -0.06700
N961        N  0.08140708  0.63665636  0.27609176    -0.59500
N962        N  0.11461607  0.58872139  0.30032201    -0.04400
N963        N  0.11589266  0.57054379  0.29701525    -0.60500
Mn964      Mn  0.09914595  0.60356860  0.32234886     1.18400
C965        C  0.12660608  0.56967529  0.28135322     0.97800
C966        C  0.06443108  0.63111831  0.28225075     0.98400
N967        N  0.15588506  0.62918224  0.35766652    -0.06700
N968        N  0.16933258  0.62188785  0.36847252    -0.63000
N969        N  0.13398296  0.66879938  0.34432733    -0.05500
N970        N  0.13353885  0.68712668  0.34573261    -0.63700
N971        N  0.12438542  0.66077329  0.35793455    -0.06200
N972        N  0.11694109  0.67404882  0.36887290    -0.63300
N973        N  0.16372782  0.63861719  0.34384931    -0.05100
N974        N  0.18203711  0.63816127  0.34488795    -0.64000
Mn975      Mn  0.12388363  0.62876605  0.35907082     1.10700
C976        C  0.18555804  0.62777184  0.36010724     0.99000
C977        C  0.12290641  0.69042872  0.36091003     0.99100
N978        N  0.12360747  0.65951370  0.28823161    -0.06300
N979        N  0.11562934  0.67115104  0.27632755    -0.61600
N980        N  0.16349116  0.63793819  0.30054662    -0.05600
N981        N  0.18166296  0.63541432  0.29788178    -0.58400
N982        N  0.15390125  0.62879307  0.28789984    -0.06900
N983        N  0.16515212  0.61968846  0.27646925    -0.61200
N984        N  0.13314752  0.66876272  0.30085258    -0.05900
N985        N  0.13205890  0.68697477  0.29773891    -0.58400
Mn986      Mn  0.12354880  0.62894090  0.28740817     1.20200
Mn987      Mn  0.14885524  0.65380680  0.32245681     1.10100
Cl988      Cl  0.12385514  0.62877339  0.32298306    -0.86300
C989        C  0.12093678  0.68814854  0.28248614     0.96000
C990        C  0.18234938  0.62386153  0.28288868     0.95800
N991        N  0.77750083  0.13306474  0.10224831    -0.06500
N992        N  0.76587551  0.14135771  0.09049295    -0.58600
N993        N  0.78868885  0.09268961  0.12396420    -0.06200
N994        N  0.78544632  0.07460398  0.12603357    -0.60700
N995        N  0.77616552  0.10263482  0.13312728    -0.05800
N996        N  0.76416579  0.09162889  0.14177839    -0.58600
N997        N  0.79001831  0.12311741  0.09308220    -0.05500
N998        N  0.78714725  0.12426278  0.07483088    -0.61100
C999        C  0.77212485  0.13581146  0.07347558     0.95700
C1000       C  0.77016734  0.07423675  0.13728867     0.95500
N1001       N  0.84623581  0.09772174  0.13240876    -0.06700
N1002       N  0.85663998  0.08366113  0.13925661    -0.59200
N1003       N  0.83337600  0.12058616  0.09337436    -0.04800
N1004       N  0.83471188  0.12073098  0.07508243    -0.60500
N1005       N  0.84766372  0.12914300  0.10118099    -0.06700
N1006       N  0.85914415  0.13537945  0.08774946    -0.59500
N1007       N  0.83195207  0.09064147  0.12321534    -0.04400
N1008       N  0.83224241  0.07229651  0.12352500    -0.60500
Mn1009     Mn  0.81104916  0.10656315  0.10819804     1.18400
C1010       C  0.84750423  0.06786633  0.13348918     0.97800
C1011       C  0.85064060  0.12990936  0.07151209     0.98400
N1012       N  0.77715624  0.13320750  0.16355285    -0.06700
N1013       N  0.76513142  0.12519947  0.17503733    -0.63000
N1014       N  0.79183201  0.17246575  0.14228424    -0.05500
N1015       N  0.79025389  0.19080038  0.14006766    -0.63700
N1016       N  0.77877954  0.16376819  0.13283386    -0.06200
N1017       N  0.76808597  0.17588215  0.12384623    -0.63300
N1018       N  0.79024793  0.14184408  0.17299977    -0.05100
N1019       N  0.78731968  0.14013789  0.19122643    -0.64000
Mn1020     Mn  0.77689597  0.13322681  0.13292946     1.10700
C1021       C  0.77165739  0.12960838  0.19218950     0.99000
C1022       C  0.77543124  0.19263128  0.12842312     0.99100
N1023       N  0.84853112  0.16184720  0.13355423    -0.06300
N1024       N  0.85958186  0.17492671  0.12600106    -0.61600
N1025       N  0.83385815  0.14028373  0.17294921    -0.05600
N1026       N  0.83523423  0.13992971  0.19126544    -0.58400
N1027       N  0.84732627  0.13036266  0.16495551    -0.06900
N1028       N  0.85815252  0.12284049  0.17824330    -0.61200
N1029       N  0.83501841  0.17020358  0.14309240    -0.05900
N1030       N  0.83652015  0.18845916  0.14243439    -0.58400
Mn1031     Mn  0.84878865  0.12972957  0.13304438     1.20200
Mn1032     Mn  0.81279865  0.15641488  0.15814305     1.10100
Cl1033     Cl  0.81273225  0.13146819  0.13310617    -0.86300
C1034       C  0.85169081  0.19147543  0.13184280     0.96000
C1035       C  0.85023389  0.12907442  0.19457554     0.95800
N1036       N  0.84474475  0.59678399  0.63367964    -0.06500
N1037       N  0.85583811  0.58312034  0.64021518    -0.58600
N1038       N  0.83086164  0.61875132  0.59453729    -0.06200
N1039       N  0.83221269  0.61858281  0.57621746    -0.60700
N1040       N  0.84490193  0.62783233  0.60220424    -0.05800
N1041       N  0.85618776  0.63415059  0.58867839    -0.58600
N1042       N  0.83053090  0.58921370  0.62478274    -0.05500
N1043       N  0.83151884  0.57090539  0.62500274    -0.61100
C1044       C  0.84717062  0.56703435  0.63457247     0.95700
C1045       C  0.84788500  0.62816251  0.57253357     0.95500
N1046       N  0.77482020  0.62978645  0.60415741    -0.06700
N1047       N  0.76313753  0.63810898  0.59252002    -0.59200
N1048       N  0.78728983  0.58999447  0.62579835    -0.04800
N1049       N  0.78455306  0.57184985  0.62793736    -0.60500
N1050       N  0.77460138  0.59962158  0.63504766    -0.06700
N1051       N  0.76298917  0.58836174  0.64386618    -0.59500
N1052       N  0.78753037  0.62019894  0.59488106    -0.04400
N1053       N  0.78476681  0.62162207  0.57664728    -0.60500
Mn1054     Mn  0.80908728  0.60432443  0.60977946     1.18400
C1055       C  0.76958505  0.63295158  0.57547109     0.97800
C1056       C  0.76943630  0.57113622  0.63935225     0.98400
N1057       N  0.84532463  0.66080154  0.63441326    -0.06700
N1058       N  0.85627415  0.67407804  0.62710269    -0.63000
N1059       N  0.83158274  0.63906781  0.67395561    -0.05500
N1060       N  0.83300813  0.63877421  0.69225559    -0.63700
N1061       N  0.84531765  0.62956465  0.66594147    -0.06200
N1062       N  0.85647985  0.62250679  0.67920706    -0.63300
N1063       N  0.83166364  0.66887768  0.64396992    -0.05100
N1064       N  0.83297330  0.68715227  0.64356886    -0.64000
Mn1065     Mn  0.84641058  0.62875481  0.63404572     1.10700
C1066       C  0.84819009  0.69046271  0.63309501     0.99000
C1067       C  0.84841987  0.62849308  0.69556618     0.99100
N1068       N  0.77542787  0.63001205  0.66524836    -0.06300
N1069       N  0.76473719  0.62055005  0.67692446    -0.61600
N1070       N  0.78843249  0.66980196  0.64349201    -0.05600
N1071       N  0.78659805  0.68801018  0.64046499    -0.58400
N1072       N  0.77556915  0.66052402  0.63436124    -0.06900
N1073       N  0.76479511  0.67204192  0.62477210    -0.61200
N1074       N  0.78839357  0.63911688  0.67439852    -0.05900
N1075       N  0.78674430  0.63626359  0.69261683    -0.58400
Mn1076     Mn  0.77453571  0.63006700  0.63474016     1.20200
Mn1077     Mn  0.81002059  0.65451794  0.65926342     1.10100
Cl1078     Cl  0.81037117  0.62944219  0.63443175    -0.86300
C1079       C  0.77200389  0.62456614  0.69387629     0.96000
C1080       C  0.77183492  0.68908075  0.62865039     0.95800
N1081       N  0.12203524  0.09901526  0.78552583    -0.06500
N1082       N  0.13028903  0.08778117  0.77341141    -0.58600
N1083       N  0.08222056  0.12030383  0.79880962    -0.06200
N1084       N  0.06403375  0.12200035  0.79581842    -0.60700
N1085       N  0.09171744  0.12976545  0.78622809    -0.05800
N1086       N  0.08031510  0.13831145  0.77448657    -0.58600
N1087       N  0.11259159  0.08941236  0.79802040    -0.05500
N1088       N  0.11406787  0.07127508  0.79464146    -0.61100
C1089       C  0.12525693  0.07056702  0.77931566     0.95700
C1090       C  0.06313821  0.13343121  0.78070204     0.95500
N1091       N  0.09043335  0.12742543  0.85646440    -0.06700
N1092       N  0.07725953  0.13401728  0.86802531    -0.59200
N1093       N  0.11215948  0.08862276  0.84143384    -0.04800
N1094       N  0.11258410  0.07030046  0.84204433    -0.60500
N1095       N  0.12155862  0.09602109  0.85545482    -0.06700
N1096       N  0.12871022  0.08224159  0.86595599    -0.59500
N1097       N  0.08238390  0.11858374  0.84244620    -0.04400
N1098       N  0.06410445  0.11876774  0.84414289    -0.60500
Mn1099     Mn  0.09704443  0.10399688  0.82023992     1.18400
C1100       C  0.06093225  0.12838419  0.85994548     0.97800
C1101       C  0.12285009  0.06628561  0.85721215     0.98400
N1102       N  0.12244532  0.15976159  0.78695375    -0.06700
N1103       N  0.11445445  0.17146559  0.77513159    -0.63000
N1104       N  0.16204675  0.13801338  0.79972937    -0.05500
N1105       N  0.18026912  0.13584100  0.79741563    -0.63700
N1106       N  0.15281058  0.12900744  0.78672359    -0.06200
N1107       N  0.16446593  0.12029704  0.77532054    -0.63300
N1108       N  0.13174984  0.16885390  0.79983602    -0.05100
N1109       N  0.13051383  0.18710474  0.79695198    -0.64000
Mn1110     Mn  0.12227518  0.12941247  0.78589605     1.10700
C1111       C  0.11951318  0.18840562  0.78158675     0.99000
C1112       C  0.18147042  0.12464478  0.78223330     0.99100
N1113       N  0.15409175  0.12847341  0.85677539    -0.06300
N1114       N  0.16738816  0.12114200  0.86775903    -0.61600
N1115       N  0.13180347  0.16794696  0.84322885    -0.05600
N1116       N  0.13085492  0.18622611  0.84423147    -0.58400
N1117       N  0.12256379  0.15993383  0.85708775    -0.06900
N1118       N  0.11507757  0.17324975  0.86799409    -0.61200
N1119       N  0.16206655  0.13793531  0.84305479    -0.05900
N1120       N  0.18039205  0.13726453  0.84425737    -0.58400
Mn1121     Mn  0.12217729  0.12791484  0.85778152     1.20200
Mn1122     Mn  0.14716579  0.15345155  0.82153709     1.10100
Cl1123     Cl  0.12214131  0.12867207  0.82171469    -0.86300
C1124       C  0.18375226  0.12685496  0.85955626     0.96000
C1125       C  0.12052720  0.18959643  0.85954871     0.95800
N1126       N  0.62389800  0.35106869  0.10327047    -0.06500
N1127       N  0.63073780  0.36215095  0.08983668    -0.58600
N1128       N  0.58481212  0.33652391  0.12536761    -0.06200
N1129       N  0.56647605  0.33733402  0.12550744    -0.60700
N1130       N  0.59218230  0.35082804  0.13432227    -0.05800
N1131       N  0.57834671  0.36177345  0.14080027    -0.58600
N1132       N  0.61486409  0.33706971  0.09544991    -0.05500
N1133       N  0.61519556  0.33828932  0.07710382    -0.61100
C1134       C  0.62507608  0.35379375  0.07359331     0.95700
C1135       C  0.56236667  0.35295121  0.13508650     0.95500
N1136       N  0.59584561  0.28047390  0.13555672    -0.06700
N1137       N  0.58474142  0.26828812  0.14378281    -0.59200
N1138       N  0.61681162  0.29374281  0.09572546    -0.04800
N1139       N  0.61819840  0.29079407  0.07750345    -0.60500
N1140       N  0.62666608  0.28128886  0.10506045    -0.06700
N1141       N  0.63513328  0.26962783  0.09343959    -0.59500
N1142       N  0.58604280  0.29298511  0.12625902    -0.04400
N1143       N  0.56793247  0.28948170  0.12775355    -0.60500
Mn1144     Mn  0.60037882  0.31513336  0.11050913     1.18400
C1145       C  0.56740824  0.27410419  0.13886608     0.97800
C1146       C  0.62980343  0.27581643  0.07632303     0.98400
N1147       N  0.62453078  0.35189826  0.16713892    -0.06700
N1148       N  0.61750911  0.36326570  0.18028502    -0.63000
N1149       N  0.66428467  0.33835285  0.14591550    -0.05500
N1150       N  0.68257181  0.33952888  0.14561791    -0.63700
N1151       N  0.65634782  0.35188672  0.13609106    -0.06200
N1152       N  0.66977048  0.36264973  0.12874500    -0.63300
N1153       N  0.63402795  0.33827306  0.17532606    -0.05100
N1154       N  0.63389440  0.34005107  0.19359168    -0.64000
Mn1155     Mn  0.62422414  0.35276646  0.13516546     1.10700
C1156       C  0.62362381  0.35549580  0.19673486     0.99000
C1157       C  0.68607207  0.35455409  0.13497030     0.99100
N1158       N  0.65694960  0.28241288  0.13606804    -0.06300
N1159       N  0.66891863  0.27192296  0.12666119    -0.61600
N1160       N  0.63427686  0.29485480  0.17583282    -0.05600
N1161       N  0.63122710  0.29281507  0.19401079    -0.58400
N1162       N  0.62566685  0.28177503  0.16635145    -0.06900
N1163       N  0.61636534  0.27064163  0.17773570    -0.61200
N1164       N  0.66578549  0.29532642  0.14556440    -0.05900
N1165       N  0.68410208  0.29385481  0.14293143    -0.58400
Mn1166     Mn  0.62640030  0.28097055  0.13576986     1.20200
Mn1167     Mn  0.64980368  0.31670673  0.16098545     1.10100
Cl1168     Cl  0.62518317  0.31676251  0.13559323    -0.86300
C1169       C  0.68575547  0.27920822  0.13101961     0.96000
C1170       C  0.61993854  0.27768586  0.19487330     0.95800
N1171       N  0.09741680  0.28008923  0.62973681    -0.06500
N1172       N  0.08688603  0.26736488  0.63791714    -0.58600
N1173       N  0.11707709  0.29670682  0.59035418    -0.06200
N1174       N  0.11842278  0.29496967  0.57196015    -0.60700
N1175       N  0.12745996  0.28402007  0.59876291    -0.05800
N1176       N  0.13627565  0.27347083  0.58640419    -0.58600
N1177       N  0.08701103  0.29289026  0.62155587    -0.05500
N1178       N  0.06903451  0.28908675  0.62382633    -0.61100
C1179       C  0.06926557  0.27316689  0.63417862     0.95700
C1180       C  0.13058087  0.28050294  0.56979252     0.95500
N1181       N  0.12212531  0.35388026  0.60163175    -0.06700
N1182       N  0.12720297  0.36664464  0.58894216    -0.59200
N1183       N  0.08467541  0.33630166  0.62393493    -0.04800
N1184       N  0.06636596  0.33650517  0.62499722    -0.60500
N1185       N  0.09201784  0.35026562  0.63344075    -0.06700
N1186       N  0.07826425  0.36042112  0.64113351    -0.59500
N1187       N  0.11328630  0.34014356  0.59312289    -0.04400
N1188       N  0.11197787  0.34322489  0.57504458    -0.60500
Mn1189     Mn  0.10024094  0.31652900  0.60698111     1.18400
C1190       C  0.12066478  0.35959256  0.57242778     0.97800
C1191       C  0.06235591  0.35142548  0.63567580     0.98400
N1192       N  0.15838520  0.28406921  0.62876209    -0.06700
N1193       N  0.17062747  0.27408932  0.61912049    -0.63000
N1194       N  0.13670533  0.29307322  0.66968172    -0.05500
N1195       N  0.13460168  0.28977958  0.68776857    -0.63700
N1196       N  0.12813542  0.28030322  0.65975569    -0.06200
N1197       N  0.11974590  0.26811576  0.67079343    -0.63300
N1198       N  0.16691000  0.29677865  0.63879832    -0.05100
N1199       N  0.18522293  0.29569355  0.63637338    -0.64000
Mn1200     Mn  0.12793081  0.28159184  0.62921031     1.10700
C1201       C  0.18724781  0.28157629  0.62393507     0.99000
C1202       C  0.12390938  0.27425499  0.68817091     0.99100
N1203       N  0.12505908  0.35040242  0.66522203    -0.06300
N1204       N  0.11826806  0.36092325  0.67913074    -0.61600
N1205       N  0.16436635  0.33968550  0.64222949    -0.05600
N1206       N  0.18252395  0.34213928  0.64259995    -0.58400
N1207       N  0.15573558  0.35365805  0.63368085    -0.06900
N1208       N  0.16848046  0.36606644  0.62794515    -0.61200
N1209       N  0.13481206  0.33638497  0.67236667    -0.05900
N1210       N  0.13488366  0.33696279  0.69074599    -0.58400
Mn1211     Mn  0.12373023  0.35330433  0.63348149     1.20200
Mn1212     Mn  0.15089073  0.31645224  0.65602516     1.10100
Cl1213     Cl  0.12567844  0.31733644  0.63138105    -0.86300
C1214       C  0.12458523  0.35217006  0.69497406     0.96000
C1215       C  0.18514939  0.35843108  0.63371729     0.95800
N1216       N  0.12531627  0.40424336  0.10099097    -0.06500
N1217       N  0.11844548  0.39285058  0.08790486    -0.58600
N1218       N  0.16461333  0.41823035  0.12267154    -0.06200
N1219       N  0.18294019  0.41676072  0.12318673    -0.60700
N1220       N  0.15652318  0.40479339  0.13244798    -0.05800
N1221       N  0.16975256  0.39390608  0.14003217    -0.58600
N1222       N  0.13484095  0.41772088  0.09270183    -0.05500
N1223       N  0.13485074  0.41579519  0.07442167    -0.61100
C1224       C  0.12466037  0.40040168  0.07137858     0.95700
C1225       C  0.18615246  0.40171692  0.13400261     0.95500
N1226       N  0.15498604  0.47472646  0.13131177    -0.06700
N1227       N  0.16625819  0.48617770  0.14017648    -0.59200
N1228       N  0.13406009  0.46125831  0.09156664    -0.04800
N1229       N  0.13224693  0.46372075  0.07327107    -0.60500
N1230       N  0.12454639  0.47408997  0.10075410    -0.06700
N1231       N  0.11588928  0.48546224  0.08907014    -0.59500
N1232       N  0.16460206  0.46180418  0.12236244    -0.04400
N1233       N  0.18278837  0.46429422  0.12478296    -0.60500
Mn1234     Mn  0.14982835  0.43971105  0.10703370     1.18400
C1235       C  0.18350466  0.47950401  0.13605336     0.97800
C1236       C  0.12074801  0.47882448  0.07204841     0.98400
N1237       N  0.12382622  0.40537879  0.16513641    -0.06700
N1238       N  0.13041227  0.39425754  0.17873256    -0.63000
N1239       N  0.08464501  0.41916920  0.14291326    -0.05500
N1240       N  0.06632157  0.41802320  0.14285814    -0.63700
N1241       N  0.09246509  0.40514167  0.13371712    -0.06200
N1242       N  0.07898788  0.39409062  0.12707224    -0.63300
N1243       N  0.11459793  0.41947744  0.17280893    -0.05100
N1244       N  0.11452944  0.41827464  0.19116349    -0.64000
Mn1245     Mn  0.12452581  0.40360400  0.13307089     1.10700
C1246       C  0.12437673  0.40266501  0.19492251     0.99000
C1247       C  0.06272066  0.40249872  0.13301703     0.99100
N1248       N  0.09384203  0.47482768  0.13135587    -0.06300
N1249       N  0.08212318  0.48614710  0.12259060    -0.61600
N1250       N  0.11537829  0.46299102  0.17167235    -0.05600
N1251       N  0.11739655  0.46598687  0.18982613    -0.58400
N1252       N  0.12452634  0.47557793  0.16191100    -0.06900
N1253       N  0.13315853  0.48733619  0.17311296    -0.61200
N1254       N  0.08464735  0.46236446  0.14122709    -0.05900
N1255       N  0.06639797  0.46498414  0.13958241    -0.58400
Mn1256     Mn  0.12445120  0.47530203  0.13127855     1.20200
Mn1257     Mn  0.09964290  0.44098035  0.15740279     1.10100
Cl1258     Cl  0.12464175  0.43955129  0.13218203    -0.86300
C1259       C  0.06509469  0.47978060  0.12781079     0.96000
C1260       C  0.12864654  0.48113535  0.19044608     0.95800
N1261       N  0.40672853  0.37812447  0.23082490    -0.06500
N1262       N  0.41854312  0.36932213  0.24191554    -0.58600
N1263       N  0.38522590  0.41822807  0.21889450    -0.06200
N1264       N  0.38313071  0.43644992  0.22130944    -0.60700
N1265       N  0.37627157  0.40894825  0.23198796    -0.05800
N1266       N  0.36764357  0.42052647  0.24351693    -0.58600
N1267       N  0.41576321  0.38742586  0.21778392    -0.05500
N1268       N  0.43406727  0.38535861  0.21981611    -0.61100
C1269       C  0.43546398  0.37387711  0.23486712     0.95700
C1270       C  0.37200825  0.43757238  0.23663464     0.95500
N1271       N  0.37466047  0.41023826  0.16198489    -0.06700
N1272       N  0.36755423  0.42356506  0.15088781    -0.59200
N1273       N  0.41422603  0.38831204  0.17442445    -0.04800
N1274       N  0.43241483  0.38869925  0.17205501    -0.60500
N1275       N  0.40594365  0.37886324  0.16096545    -0.06700
N1276       N  0.41895438  0.37242847  0.14907938    -0.59500
N1277       N  0.38435206  0.41819647  0.17548118    -0.04400
N1278       N  0.38421169  0.43650028  0.17390300    -0.60500
Mn1279     Mn  0.40013610  0.40328451  0.19662663     1.18400
C1280       C  0.37376227  0.43986976  0.15869439     0.97800
C1281       C  0.43541559  0.37882354  0.15638437     0.98400
N1282       N  0.34569924  0.37899184  0.23316275    -0.06700
N1283       N  0.33445154  0.38783172  0.24491266    -0.63000
N1284       N  0.36620981  0.33860918  0.22008281    -0.05500
N1285       N  0.36786550  0.32037949  0.22303884    -0.63700
N1286       N  0.37600318  0.34795930  0.23240918    -0.06200
N1287       N  0.38469137  0.33643249  0.24393902    -0.63300
N1288       N  0.33601358  0.36976002  0.22066807    -0.05100
N1289       N  0.31790342  0.37189685  0.22367763    -0.64000
Mn1290     Mn  0.37622711  0.37849745  0.23261907     1.10700
C1291       C  0.31720211  0.38331470  0.23871871     0.99000
C1292       C  0.37956525  0.31931763  0.23789680     0.99100
N1293       N  0.37314866  0.34629454  0.16241729    -0.06300
N1294       N  0.37916989  0.33280258  0.15091832    -0.61600
N1295       N  0.33448784  0.36872306  0.17722500    -0.05600
N1296       N  0.31615229  0.36863364  0.17586835    -0.58400
N1297       N  0.34222615  0.37769545  0.16302382    -0.06900
N1298       N  0.32880468  0.38399486  0.15164468    -0.61200
N1299       N  0.36414218  0.33857648  0.17661264    -0.05900
N1300       N  0.36370012  0.32029887  0.17514186    -0.58400
Mn1301     Mn  0.37400404  0.37824065  0.16084951     1.20200
Mn1302     Mn  0.34997511  0.35369505  0.19866435     1.10100
Cl1303     Cl  0.37510424  0.37838597  0.19682549    -0.86300
C1304       C  0.37305538  0.31666763  0.15924449     0.96000
C1305       C  0.31262431  0.37815186  0.16002704     0.95800
N1306       N  0.65663503  0.62622707  0.41107917    -0.06500
N1307       N  0.67043173  0.63268941  0.40018129    -0.58600
N1308       N  0.63439766  0.58693431  0.42318280    -0.06200
N1309       N  0.63454841  0.56869490  0.42109254    -0.60700
N1310       N  0.62535965  0.59534418  0.40940292    -0.05800
N1311       N  0.61889058  0.58242969  0.39764026    -0.58600
N1312       N  0.66402090  0.61667230  0.42509977    -0.05500
N1313       N  0.68235663  0.61639580  0.42414347    -0.61100
C1314       C  0.68641814  0.62634650  0.40872712     0.95700
C1315       C  0.62487608  0.56588607  0.40530808     0.95500
N1316       N  0.62191287  0.59447260  0.47928517    -0.06700
N1317       N  0.61321707  0.58252876  0.49034290    -0.59200
N1318       N  0.66225513  0.61617200  0.46845966    -0.04800
N1319       N  0.68033291  0.61880618  0.47125052    -0.60500
N1320       N  0.65228982  0.62496947  0.48120490    -0.06700
N1321       N  0.66323440  0.63396760  0.49287531    -0.59500
N1322       N  0.63191809  0.58553613  0.46664329    -0.04400
N1323       N  0.63041315  0.56722945  0.46889715    -0.60500
Mn1324     Mn  0.64839177  0.60108937  0.44584671     1.18400
C1325       C  0.61857104  0.56564360  0.48364715     0.97800
C1326       C  0.68061669  0.63003368  0.48647324     0.98400
N1327       N  0.59265358  0.62810364  0.40911064    -0.06700
N1328       N  0.57973224  0.62180959  0.39722598    -0.63000
N1329       N  0.61402981  0.66679201  0.42463239    -0.05500
N1330       N  0.61389341  0.68513250  0.42343702    -0.63700
N1331       N  0.62378692  0.65913849  0.41088047    -0.06200
N1332       N  0.63062735  0.67269358  0.39997671    -0.63300
N1333       N  0.58422286  0.63715495  0.42289061    -0.05100
N1334       N  0.56599187  0.63739082  0.42073697    -0.64000
Mn1335     Mn  0.62465300  0.62723965  0.40886674     1.10700
C1336       C  0.56315743  0.62784114  0.40487154     0.99000
C1337       C  0.62423593  0.68882130  0.40818861     0.99100
N1338       N  0.62208377  0.65570318  0.48096223    -0.06300
N1339       N  0.63092186  0.66688110  0.49260307    -0.61600
N1340       N  0.58257072  0.63544997  0.46630722    -0.05600
N1341       N  0.56424255  0.63445810  0.46851906    -0.58400
N1342       N  0.59122256  0.62552877  0.47917516    -0.06900
N1343       N  0.57902175  0.61737382  0.49038744    -0.61200
N1344       N  0.61338226  0.66546982  0.46801199    -0.05900
N1345       N  0.61588513  0.68357900  0.47062623    -0.58400
Mn1346     Mn  0.62179981  0.62507435  0.48071151     1.20200
Mn1347     Mn  0.59833933  0.65142508  0.44545520     1.10100
Cl1348     Cl  0.62327740  0.62617147  0.44487339    -0.86300
C1349       C  0.62695574  0.68417912  0.48593271     0.96000
C1350       C  0.56230462  0.62301770  0.48349455     0.95800
N1351       N  0.52719456  0.34730980  0.38745959    -0.06500
N1352       N  0.51575081  0.33566119  0.37903231    -0.58600
N1353       N  0.54111609  0.36856608  0.42701571    -0.06200
N1354       N  0.53940189  0.37083477  0.44530126    -0.60700
N1355       N  0.52801558  0.37791264  0.41809276    -0.05800
N1356       N  0.51720053  0.38702081  0.42999625    -0.58600
N1357       N  0.54025434  0.33803827  0.39652957    -0.05500
N1358       N  0.53794837  0.31981341  0.39468345    -0.61100
C1359       C  0.52268107  0.31862558  0.38363546     0.95700
C1360       C  0.52450602  0.38250605  0.44683363     0.95500
N1361       N  0.59799397  0.37680358  0.41730316    -0.06700
N1362       N  0.60958257  0.38334031  0.43039956    -0.59200
N1363       N  0.58329470  0.33783731  0.39575623    -0.04800
N1364       N  0.58442339  0.31952048  0.39540130    -0.60500
N1365       N  0.59679765  0.34563538  0.38586563    -0.06700
N1366       N  0.60748023  0.33216346  0.37838837    -0.59500
N1367       N  0.58435825  0.36752704  0.42557975    -0.04400
N1368       N  0.58629619  0.36736805  0.44382012    -0.60500
Mn1369     Mn  0.56227839  0.35277590  0.41148327     1.18400
C1370       C  0.60189227  0.37718934  0.44690053     0.97800
C1371       C  0.59937174  0.31596871  0.38460429     0.98400
N1372       N  0.52686291  0.40841082  0.38785204    -0.06700
N1373       N  0.51572285  0.41994239  0.39706626    -0.63000
N1374       N  0.53834782  0.38758974  0.34738989    -0.05500
N1375       N  0.53517273  0.38618738  0.32923246    -0.63700
N1376       N  0.52581133  0.37822518  0.35700194    -0.06200
N1377       N  0.51383221  0.37008370  0.34566650    -0.63300
N1378       N  0.53936223  0.41775836  0.37817804    -0.05100
N1379       N  0.53690916  0.43596332  0.38035913    -0.64000
Mn1380     Mn  0.52638872  0.37790029  0.38760416     1.10700
C1381       C  0.52222326  0.43702711  0.39231513     0.99000
C1382       C  0.51991931  0.37514045  0.32843360     0.99100
N1383       N  0.59580146  0.37837207  0.35335567    -0.06300
N1384       N  0.60640697  0.37144147  0.33952491    -0.61600
N1385       N  0.58263038  0.41753786  0.37594779    -0.05600
N1386       N  0.58383437  0.43584153  0.37624149    -0.58400
N1387       N  0.59687508  0.40955099  0.38463936    -0.06900
N1388       N  0.60820175  0.42286267  0.39109643    -0.61200
N1389       N  0.58160154  0.38770102  0.34602225    -0.05900
N1390       N  0.58212580  0.38736006  0.32767405    -0.58400
Mn1391     Mn  0.59821266  0.37759079  0.38524282     1.20200
Mn1392     Mn  0.56053068  0.40289188  0.36164952     1.10100
Cl1393     Cl  0.56219141  0.37779043  0.38646834    -0.86300
C1394       C  0.59747959  0.37727881  0.32357727     0.96000
C1395       C  0.59964966  0.43919104  0.38564840     0.95800
N1396       N  0.34460163  0.09781174  0.63505239    -0.06500
N1397       N  0.35558757  0.08429816  0.64197431    -0.58600
N1398       N  0.33124284  0.11969499  0.59556324    -0.06200
N1399       N  0.33298434  0.11910154  0.57727556    -0.60700
N1400       N  0.34534382  0.12857708  0.60338875    -0.05800
N1401       N  0.35705595  0.13433879  0.58996544    -0.58600
N1402       N  0.33071449  0.09010345  0.62572054    -0.05500
N1403       N  0.33192119  0.07176095  0.62596513    -0.61100
C1404       C  0.34729903  0.06813598  0.63608706     0.95700
C1405       C  0.34893513  0.12822032  0.57376078     0.95500
N1406       N  0.27499062  0.13107691  0.60512845    -0.06700
N1407       N  0.26325362  0.13966613  0.59373737    -0.59200
N1408       N  0.28737797  0.09092911  0.62629941    -0.04800
N1409       N  0.28428696  0.07276532  0.62783890    -0.60500
N1410       N  0.27480409  0.10051866  0.63574442    -0.06700
N1411       N  0.26290614  0.08918816  0.64407739    -0.59500
N1412       N  0.28757358  0.12154995  0.59559527    -0.04400
N1413       N  0.28457036  0.12328867  0.57737813    -0.60500
Mn1414     Mn  0.30926109  0.10538060  0.61053680     1.18400
C1415       C  0.26941624  0.13475740  0.57650699     0.97800
C1416       C  0.26904670  0.07196662  0.63909244     0.98400
N1417       N  0.34592836  0.16170815  0.63582510    -0.06700
N1418       N  0.35773174  0.17471897  0.62948977    -0.63000
N1419       N  0.33195056  0.14063045  0.67529008    -0.05500
N1420       N  0.33384671  0.14131205  0.69355682    -0.63700
N1421       N  0.34560003  0.13094312  0.66735563    -0.06200
N1422       N  0.35715292  0.12466385  0.68065913    -0.63300
N1423       N  0.33220118  0.17000589  0.64511189    -0.05100
N1424       N  0.33430194  0.18822427  0.64543823    -0.64000
Mn1425     Mn  0.34660837  0.12970821  0.63537767     1.10700
C1426       C  0.35009618  0.19121033  0.63570286     0.99000
C1427       C  0.34943260  0.13136337  0.69691491     0.99100
N1428       N  0.27582960  0.13100291  0.66630097    -0.06300
N1429       N  0.26481475  0.12201715  0.67804952    -0.61600
N1430       N  0.28876288  0.17075215  0.64484473    -0.05600
N1431       N  0.28677445  0.18899970  0.64245022    -0.58400
N1432       N  0.27580731  0.16163238  0.63568151    -0.06900
N1433       N  0.26479179  0.17337916  0.62662360    -0.61200
N1434       N  0.28873058  0.14023696  0.67543523    -0.05900
N1435       N  0.28672398  0.13793667  0.69369138    -0.58400
Mn1436     Mn  0.27482869  0.13108890  0.63575550     1.20200
Mn1437     Mn  0.31037634  0.15563952  0.66036301     1.10100
Cl1438     Cl  0.31062948  0.13047221  0.63545775    -0.86300
C1439       C  0.27182373  0.12644462  0.69499956     0.96000
C1440       C  0.27182896  0.19032733  0.63096193     0.95800
N1441       N  0.27756049  0.62845304  0.10278440    -0.06500
N1442       N  0.26592629  0.63674116  0.09108400    -0.58600
N1443       N  0.29010782  0.58849183  0.12411430    -0.06200
N1444       N  0.28733938  0.57026076  0.12553373    -0.60700
N1445       N  0.27711297  0.59779894  0.13330507    -0.05800
N1446       N  0.26525481  0.58617527  0.14133414    -0.58600
N1447       N  0.29052025  0.61910618  0.09359573    -0.05500
N1448       N  0.28790670  0.62061352  0.07533491    -0.61100
C1449       C  0.27259163  0.63178002  0.07407614     0.95700
C1450       C  0.27185228  0.56909515  0.13642891     0.95500
N1451       N  0.34727750  0.59656193  0.13362399    -0.06700
N1452       N  0.35839876  0.58325752  0.14076877    -0.59200
N1453       N  0.33404032  0.61838305  0.09412836    -0.04800
N1454       N  0.33610659  0.61810296  0.07585880    -0.60500
N1455       N  0.34763572  0.62775627  0.10224658    -0.06700
N1456       N  0.35928033  0.63422371  0.08910587    -0.59500
N1457       N  0.33359904  0.58857762  0.12424246    -0.04400
N1458       N  0.33504117  0.57026539  0.12467963    -0.60500
Mn1459     Mn  0.31211393  0.60341706  0.10878147     1.18400
C1460       C  0.35038434  0.56692277  0.13494462     0.97800
C1461       C  0.35172750  0.62796399  0.07270357     0.98400
N1462       N  0.27653446  0.62867244  0.16387526    -0.06700
N1463       N  0.26456644  0.62058577  0.17533776    -0.63000
N1464       N  0.28942568  0.66849113  0.14266157    -0.05500
N1465       N  0.28668762  0.68670505  0.14053983    -0.63700
N1466       N  0.27691573  0.65901996  0.13323237    -0.06200
N1467       N  0.26548585  0.67044717  0.12430601    -0.63300
N1468       N  0.28911455  0.63803206  0.17332023    -0.05100
N1469       N  0.28597141  0.63665021  0.19152263    -0.64000
Mn1470     Mn  0.27654698  0.62846651  0.13332427     1.10700
C1471       C  0.27068234  0.62562084  0.19246333     0.99000
C1472       C  0.27176263  0.68760566  0.12893159     0.99100
N1473       N  0.34680209  0.66054772  0.13467617    -0.06300
N1474       N  0.35789151  0.67396024  0.12786835    -0.61600
N1475       N  0.33244601  0.63836572  0.17368251    -0.05600
N1476       N  0.33315420  0.63762879  0.19199838    -0.58400
N1477       N  0.34650405  0.62908893  0.16597968    -0.06900
N1478       N  0.35718192  0.62174709  0.17949771    -0.61200
N1479       N  0.33282220  0.66843324  0.14393255    -0.05900
N1480       N  0.33407070  0.68674414  0.14383317    -0.58400
Mn1481     Mn  0.34834719  0.62852397  0.13413306     1.20200
Mn1482     Mn  0.31101312  0.65357895  0.15864563     1.10100
Cl1483     Cl  0.31233567  0.62849131  0.13372036    -0.86300
C1484       C  0.34955753  0.69022859  0.13383134     0.96000
C1485       C  0.34845938  0.62732922  0.19566696     0.95800
N1486       N  0.46901366  0.12614172  0.10385099    -0.06500
N1487       N  0.48108811  0.11786315  0.09256487    -0.58600
N1488       N  0.45736307  0.16645874  0.12480555    -0.06200
N1489       N  0.46099515  0.18453005  0.12619262    -0.60700
N1490       N  0.46966329  0.15657615  0.13430717    -0.05800
N1491       N  0.48187857  0.16760627  0.14250059    -0.58600
N1492       N  0.45673837  0.13594224  0.09425575    -0.05500
N1493       N  0.46027925  0.13472925  0.07609983    -0.61100
C1494       C  0.47541713  0.12326147  0.07534236     0.95700
C1495       C  0.47625404  0.18496491  0.13739156     0.95500
N1496       N  0.39969790  0.16066915  0.13312267    -0.06700
N1497       N  0.38885361  0.17437877  0.13985937    -0.59200
N1498       N  0.41307711  0.13805730  0.09400223    -0.04800
N1499       N  0.41180921  0.13756502  0.07566036    -0.60500
N1500       N  0.39887243  0.12940930  0.10204925    -0.06700
N1501       N  0.38761523  0.12269430  0.08880067    -0.59500
N1502       N  0.41383050  0.16805172  0.12379996    -0.04400
N1503       N  0.41295320  0.18638891  0.12388247    -0.60500
Mn1504     Mn  0.43519695  0.15237658  0.10893485     1.18400
C1505       C  0.39749041  0.19033913  0.13387012     0.97800
C1506       C  0.39604982  0.12800657  0.07241351     0.98400
N1507       N  0.46785165  0.12589975  0.16486441    -0.06700
N1508       N  0.47951685  0.13400126  0.17649547    -0.63000
N1509       N  0.45378369  0.08668177  0.14354114    -0.05500
N1510       N  0.45538218  0.06839639  0.14121792    -0.63700
N1511       N  0.46695021  0.09551302  0.13425809    -0.06200
N1512       N  0.47769072  0.08354295  0.12516467    -0.63300
N1513       N  0.45473768  0.11698314  0.17412516    -0.05100
N1514       N  0.45724812  0.11860648  0.19237498    -0.64000
Mn1515     Mn  0.46886194  0.12598870  0.13437570     1.10700
C1516       C  0.47268631  0.12937991  0.19352035     0.99000
C1517       C  0.47026015  0.06676101  0.12957819     0.99100
N1518       N  0.39714596  0.09716872  0.13472124    -0.06300
N1519       N  0.38536292  0.08445020  0.12795356    -0.61600
N1520       N  0.41151987  0.11825935  0.17402658    -0.05600
N1521       N  0.41016465  0.11852079  0.19235087    -0.58400
N1522       N  0.39820144  0.12836004  0.16608358    -0.06900
N1523       N  0.38744749  0.13591606  0.17948181    -0.61200
N1524       N  0.41047174  0.08857847  0.14422706    -0.05900
N1525       N  0.40806643  0.07041012  0.14442137    -0.58400
Mn1526     Mn  0.39721374  0.12899234  0.13399362     1.20200
Mn1527     Mn  0.43260698  0.10236791  0.15920575     1.10100
Cl1528     Cl  0.43313941  0.12747381  0.13410103    -0.86300
C1529       C  0.39253071  0.06781905  0.13429882     0.96000
C1530       C  0.39529343  0.12949758  0.19580000     0.95800
N1531       N  0.34091351  0.15574480  0.38482513    -0.06500
N1532       N  0.32740398  0.14503207  0.39197272    -0.58600
N1533       N  0.36313559  0.16923289  0.34553449    -0.06200
N1534       N  0.36362204  0.16824561  0.32718495    -0.60700
N1535       N  0.37231564  0.15517231  0.35332397    -0.05800
N1536       N  0.37939721  0.14424584  0.33983873    -0.58600
N1537       N  0.33321472  0.16984709  0.37564793    -0.05500
N1538       N  0.31487179  0.16910051  0.37619502    -0.61100
C1539       C  0.31125042  0.15374654  0.38636362     0.95700
C1540       C  0.37373380  0.15279336  0.32359953     0.95500
N1541       N  0.37443372  0.22485722  0.35529488    -0.06700
N1542       N  0.38366395  0.23587858  0.34371827    -0.59200
N1543       N  0.33420892  0.21298230  0.37675069    -0.04800
N1544       N  0.31605133  0.21560019  0.37927008    -0.60500
N1545       N  0.34379519  0.22544800  0.38610818    -0.06700
N1546       N  0.33247670  0.23678260  0.39535443    -0.59500
N1547       N  0.36485888  0.21237686  0.34594092    -0.04400
N1548       N  0.36720366  0.21466291  0.32771367    -0.60500
Mn1549     Mn  0.34857730  0.19111097  0.36070463     1.18400
C1550       C  0.37906169  0.22930417  0.32662092     0.97800
C1551       C  0.31526637  0.23041448  0.39099972     0.98400
N1552       N  0.40466581  0.15401315  0.38610609    -0.06700
N1553       N  0.41780745  0.14240928  0.37943315    -0.63000
N1554       N  0.38277025  0.16791909  0.42543163    -0.05500
N1555       N  0.38248151  0.16605657  0.44372833    -0.63700
N1556       N  0.37327427  0.15445557  0.41721000    -0.06200
N1557       N  0.36617306  0.14311543  0.43028490    -0.63300
N1558       N  0.41279657  0.16751370  0.39562141    -0.05100
N1559       N  0.43102800  0.16544887  0.39579135    -0.64000
Mn1560     Mn  0.37277937  0.15356842  0.38531170     1.10700
C1561       C  0.43418842  0.14991867  0.38574428     0.99000
C1562       C  0.37214630  0.15072658  0.44676373     0.99100
N1563       N  0.37429413  0.22462067  0.41650224    -0.06300
N1564       N  0.36606887  0.23645964  0.42805125    -0.61600
N1565       N  0.41395814  0.21107551  0.39522951    -0.05600
N1566       N  0.43222026  0.21377406  0.39371859    -0.58400
N1567       N  0.40474207  0.22397858  0.38585519    -0.06900
N1568       N  0.41635379  0.23559823  0.37756139    -0.61200
N1569       N  0.38327561  0.21155086  0.42587039    -0.05900
N1570       N  0.38155024  0.21428128  0.44412006    -0.58400
Mn1571     Mn  0.37430570  0.22524976  0.38590849     1.20200
Mn1572     Mn  0.39846483  0.18945841  0.41081886     1.10100
Cl1573     Cl  0.37356731  0.18951494  0.38570367    -0.86300
C1574       C  0.37064348  0.22980940  0.44516239     0.96000
C1575       C  0.43339861  0.22905176  0.38250289     0.95800
N1576       N  0.59305171  0.78196512  0.63241302    -0.06500
N1577       N  0.58165669  0.77058318  0.64136941    -0.58600
N1578       N  0.61378693  0.79444017  0.59205500    -0.06200
N1579       N  0.61522999  0.79136291  0.57382600    -0.60700
N1580       N  0.62329189  0.78177047  0.60144749    -0.05800
N1581       N  0.63158269  0.76989564  0.58997600    -0.58600
N1582       N  0.58352585  0.79467386  0.62308221    -0.05500
N1583       N  0.56534813  0.79213000  0.62525039    -0.61100
C1584       C  0.56448473  0.77715695  0.63682748     0.95700
C1585       C  0.62651133  0.77606972  0.57284404     0.95500
N1586       N  0.62233347  0.85178531  0.60023110    -0.06700
N1587       N  0.62965199  0.86261385  0.58684541    -0.59200
N1588       N  0.58312401  0.83815309  0.62232291    -0.04800
N1589       N  0.56480542  0.83985761  0.62244301    -0.60500
N1590       N  0.59109995  0.85189175  0.63164023    -0.06700
N1591       N  0.57783785  0.86327272  0.63842598    -0.59500
N1592       N  0.61310814  0.83794937  0.59232921    -0.04400
N1593       N  0.61383083  0.83898482  0.57400551    -0.60500
Mn1594     Mn  0.59809821  0.81635666  0.60716349     1.18400
C1595       C  0.62409519  0.85423861  0.57058068     0.97800
C1596       C  0.56150967  0.85539695  0.63247379     0.98400
N1597       N  0.65424101  0.78212010  0.63147541    -0.06700
N1598       N  0.66592615  0.77081118  0.62262279    -0.63000
N1599       N  0.63326257  0.79455487  0.67170204    -0.05500
N1600       N  0.63190342  0.79156763  0.68993125    -0.63700
N1601       N  0.62393372  0.78185183  0.66240660    -0.06200
N1602       N  0.61579204  0.77003662  0.67397989    -0.63300
N1603       N  0.66346116  0.79500187  0.64065789    -0.05100
N1604       N  0.68169748  0.79270498  0.63841625    -0.64000
Mn1605     Mn  0.62363187  0.78143331  0.63194233     1.10700
C1606       C  0.68294794  0.77763235  0.62703971     0.99000
C1607       C  0.62081630  0.77632711  0.69104589     0.99100
N1608       N  0.62381580  0.85189704  0.66423183    -0.06300
N1609       N  0.61712030  0.86302280  0.67776690    -0.61600
N1610       N  0.66297673  0.83835132  0.64169168    -0.05600
N1611       N  0.68123863  0.84003262  0.64167421    -0.58400
N1612       N  0.65484151  0.85227253  0.63261426    -0.06900
N1613       N  0.66798511  0.86382988  0.62609123    -0.61200
N1614       N  0.63337520  0.83804447  0.67196181    -0.05900
N1615       N  0.63353640  0.83940748  0.69028676    -0.58400
Mn1616     Mn  0.62295919  0.85323879  0.63217626     1.20200
Mn1617     Mn  0.64848522  0.81650474  0.65672267     1.10100
Cl1618     Cl  0.62325142  0.81723421  0.63200422    -0.86300
C1619       C  0.62342559  0.85485889  0.69397953     0.96000
C1620       C  0.68439107  0.85577372  0.63197112     0.95800
N1621       N  0.21847674  0.34662648  0.38631669    -0.06500
N1622       N  0.23014046  0.33497325  0.39461034    -0.58600
N1623       N  0.20710470  0.36755754  0.34603695    -0.06200
N1624       N  0.21030675  0.36894604  0.32784164    -0.60700
N1625       N  0.21973908  0.37679616  0.35553270    -0.05800
N1626       N  0.23174796  0.38487506  0.34409873    -0.58600
N1627       N  0.20575754  0.33740864  0.37689455    -0.05500
N1628       N  0.20859277  0.31914609  0.37839465    -0.61100
C1629       C  0.22378048  0.31796253  0.38964211     0.95700
C1630       C  0.22565502  0.37990251  0.32694699     0.95500
N1631       N  0.14995759  0.37805097  0.35222695    -0.06700
N1632       N  0.13944785  0.38507701  0.33838818    -0.59200
N1633       N  0.16210189  0.33873128  0.37513583    -0.04800
N1634       N  0.15984096  0.32055168  0.37474435    -0.60500
N1635       N  0.14804111  0.34716839  0.38377014    -0.06700
N1636       N  0.13580550  0.33429558  0.38956377    -0.59500
N1637       N  0.16379924  0.36817186  0.34487697    -0.04400
N1638       N  0.16306707  0.36816327  0.32651752    -0.60500
Mn1639     Mn  0.18465275  0.35270493  0.36058266     1.18400
C1640       C  0.14800464  0.37866898  0.32240198     0.97800
C1641       C  0.14360886  0.31774261  0.38372764     0.98400
N1642       N  0.21974509  0.40772331  0.38577562    -0.06700
N1643       N  0.23165367  0.41901827  0.37738172    -0.63000
N1644       N  0.20588763  0.38723680  0.42587798    -0.05500
N1645       N  0.20871753  0.38634523  0.44418105    -0.63700
N1646       N  0.21870232  0.37751630  0.41686674    -0.06200
N1647       N  0.23043564  0.36959161  0.42876041    -0.63300
N1648       N  0.20698856  0.41737097  0.39491139    -0.05100
N1649       N  0.20997701  0.43551503  0.39316807    -0.64000
Mn1650     Mn  0.21962793  0.37713644  0.38612591     1.10700
C1651       C  0.22531733  0.43626134  0.38207367     0.99000
C1652       C  0.22400894  0.37514093  0.44571126     0.99100
N1653       N  0.14823663  0.38009008  0.41624905    -0.06300
N1654       N  0.13632425  0.37414400  0.42942726    -0.61600
N1655       N  0.16378036  0.41845307  0.39425320    -0.05600
N1656       N  0.16284283  0.43679605  0.39377160    -0.58400
N1657       N  0.15004497  0.41085243  0.38463471    -0.06900
N1658       N  0.13938883  0.42441423  0.37733091    -0.61200
N1659       N  0.16226882  0.38878938  0.42440704    -0.05900
N1660       N  0.16034096  0.38900282  0.44266335    -0.58400
Mn1661     Mn  0.14778758  0.37910158  0.38421490     1.20200
Mn1662     Mn  0.18466100  0.40313318  0.41011587     1.10100
Cl1663     Cl  0.18383584  0.37795777  0.38531623    -0.86300
C1664       C  0.14431404  0.37990900  0.44583077     0.96000
C1665       C  0.14775814  0.44050272  0.38325003     0.95800
N1666       N  0.59297152  0.62819699  0.85641851    -0.06500
N1667       N  0.57929647  0.63545089  0.86701802    -0.58600
N1668       N  0.61505034  0.58868481  0.84344028    -0.06200
N1669       N  0.61532194  0.57037491  0.84482416    -0.60700
N1670       N  0.62414333  0.59656214  0.85737567    -0.05800
N1671       N  0.63097183  0.58321303  0.86860228    -0.58600
N1672       N  0.58545646  0.61908429  0.84230263    -0.05500
N1673       N  0.56714711  0.61989223  0.84283827    -0.61100
C1674       C  0.56326056  0.63003999  0.85813852     0.95700
C1675       C  0.62523104  0.56695473  0.86038077     0.95500
N1676       N  0.62648237  0.59755425  0.78744665    -0.06700
N1677       N  0.63501191  0.58569887  0.77609763    -0.59200
N1678       N  0.58646430  0.61918773  0.79913076    -0.04800
N1679       N  0.56833064  0.62099406  0.79605996    -0.60500
N1680       N  0.59609818  0.62836465  0.78646002    -0.06700
N1681       N  0.58483681  0.63685546  0.77454603    -0.59500
N1682       N  0.61678291  0.58852983  0.80018740    -0.04400
N1683       N  0.61827236  0.57029047  0.79776758    -0.60500
Mn1684     Mn  0.60069444  0.60362897  0.82132641     1.18400
C1685       C  0.62979927  0.56880840  0.78280129     0.97800
C1686       C  0.56761627  0.63218942  0.78079757     0.98400
N1687       N  0.65677788  0.62879865  0.85804623    -0.06700
N1688       N  0.66975040  0.62217388  0.86979929    -0.63000
N1689       N  0.63529856  0.66793575  0.84337729    -0.05500
N1690       N  0.63531233  0.68620512  0.84474109    -0.63700
N1691       N  0.62567771  0.66013820  0.85709377    -0.06200
N1692       N  0.61875017  0.67352392  0.86817133    -0.63300
N1693       N  0.66510802  0.63808782  0.84439857    -0.05100
N1694       N  0.68334790  0.63820350  0.84655264    -0.64000
Mn1695     Mn  0.62484290  0.62838780  0.85853528     1.10700
C1696       C  0.68626619  0.62827754  0.86224854     0.99000
C1697       C  0.62503467  0.68967070  0.86006109     0.99100
N1698       N  0.62648812  0.65862308  0.78706484    -0.06300
N1699       N  0.61815520  0.67020325  0.77530771    -0.61600
N1700       N  0.66595436  0.63713908  0.80100796    -0.05600
N1701       N  0.68420558  0.63487372  0.79912138    -0.58400
N1702       N  0.65697138  0.62781776  0.78805906    -0.06900
N1703       N  0.66881358  0.61877636  0.77712665    -0.61200
N1704       N  0.63553910  0.66792381  0.79999113    -0.05900
N1705       N  0.63380257  0.68614135  0.79721332    -0.58400
Mn1706     Mn  0.62655434  0.62810135  0.78668101     1.20200
Mn1707     Mn  0.65073046  0.65303091  0.82219149     1.10100
Cl1708     Cl  0.62572499  0.62828585  0.82250732    -0.86300
C1709       C  0.62280943  0.68726067  0.78184808     0.96000
C1710       C  0.68566267  0.62327300  0.78426054     0.95800
N1711       N  0.34327269  0.37967457  0.53826680    -0.06500
N1712       N  0.33175598  0.37074597  0.52703258    -0.58600
N1713       N  0.36380751  0.41983960  0.55129104    -0.06200
N1714       N  0.36508007  0.43812860  0.54865464    -0.60700
N1715       N  0.37331130  0.41076797  0.53838859    -0.05800
N1716       N  0.38148592  0.42255739  0.52679723    -0.58600
N1717       N  0.33384855  0.38873240  0.55124777    -0.05500
N1718       N  0.31564509  0.38637915  0.54905647    -0.61100
C1719       C  0.31460735  0.37501378  0.53397522     0.95700
C1720       C  0.37628878  0.43952687  0.53339471     0.95500
N1721       N  0.37287301  0.41095670  0.60867448    -0.06700
N1722       N  0.37938630  0.42430656  0.61998819    -0.59200
N1723       N  0.33399282  0.38889709  0.59464363    -0.04800
N1724       N  0.31570448  0.38910767  0.59630989    -0.60500
N1725       N  0.34197529  0.37955573  0.60848639    -0.06700
N1726       N  0.32863416  0.37314255  0.61997706    -0.59500
N1727       N  0.36344355  0.41890812  0.59487889    -0.04400
N1728       N  0.36322585  0.43717357  0.59644325    -0.60500
Mn1729     Mn  0.34857716  0.40431143  0.57304339     1.18400
C1730       C  0.37312118  0.44061810  0.61196486     0.97800
C1731       C  0.31230622  0.37931344  0.61195659     0.98400
N1732       N  0.40459734  0.38067231  0.53814379    -0.06700
N1733       N  0.41622536  0.38958030  0.52688598    -0.63000
N1734       N  0.38397208  0.34016541  0.55025093    -0.05500
N1735       N  0.38222388  0.32197062  0.54742981    -0.63700
N1736       N  0.37460142  0.34968944  0.53759648    -0.06200
N1737       N  0.36610044  0.33830384  0.52595525    -0.63300
N1738       N  0.41390952  0.37109242  0.55081077    -0.05100
N1739       N  0.43211021  0.37305219  0.54840488    -0.64000
Mn1740     Mn  0.37396190  0.38022610  0.53756428     1.10700
C1741       C  0.43328458  0.38472849  0.53355667     0.99000
C1742       C  0.37091899  0.32111371  0.53228994     0.99100
N1743       N  0.37534919  0.34692703  0.60782782    -0.06300
N1744       N  0.36922538  0.33326993  0.61906372    -0.61600
N1745       N  0.41410132  0.36938196  0.59416552    -0.05600
N1746       N  0.43239096  0.36899942  0.59585843    -0.58400
N1747       N  0.40606419  0.37830718  0.60825739    -0.06900
N1748       N  0.41932546  0.38431120  0.61991248    -0.61200
N1749       N  0.38471685  0.33938176  0.59374227    -0.05900
N1750       N  0.38525971  0.32107105  0.59502026    -0.58400
Mn1751     Mn  0.37404829  0.37892226  0.60958983     1.20200
Mn1752     Mn  0.39936661  0.35480138  0.57222886     1.10100
Cl1753     Cl  0.37399464  0.37956679  0.57347602    -0.86300
C1754       C  0.37561491  0.31720950  0.61068661     0.96000
C1755       C  0.43567776  0.37829609  0.61177990     0.95800
N1756       N  0.40114012  0.66079237  0.63389101    -0.06500
N1757       N  0.38984589  0.67400585  0.64095571    -0.58600
N1758       N  0.41430149  0.63945056  0.59408697    -0.06200
N1759       N  0.41312331  0.63892333  0.57575993    -0.60700
N1760       N  0.40079173  0.62978934  0.60213321    -0.05800
N1761       N  0.39002127  0.62237964  0.58882100    -0.58600
N1762       N  0.41480246  0.66889937  0.62447631    -0.05500
N1763       N  0.41314497  0.68720793  0.62475252    -0.61100
C1764       C  0.39771299  0.69042255  0.63502313     0.95700
C1765       C  0.39809333  0.62834341  0.57243256     0.95500
N1766       N  0.47031233  0.62893711  0.60168638    -0.06700
N1767       N  0.48095262  0.61984842  0.58960508    -0.59200
N1768       N  0.45824790  0.66843992  0.62399582    -0.04800
N1769       N  0.46084315  0.68659563  0.62584604    -0.60500
N1770       N  0.47133137  0.65897705  0.63284659    -0.06700
N1771       N  0.48307706  0.67044118  0.64114938    -0.59500
N1772       N  0.45736008  0.63862896  0.59290942    -0.04400
N1773       N  0.45899890  0.63659792  0.57457271    -0.60500
Mn1774     Mn  0.43614531  0.65414968  0.60868254     1.18400
C1775       C  0.47369738  0.62472427  0.57281098     0.97800
C1776       C  0.47626734  0.68756339  0.63668485     0.98400
N1777       N  0.40134197  0.59677649  0.63472253    -0.06700
N1778       N  0.38977514  0.58345001  0.62871609    -0.63000
N1779       N  0.41620159  0.61842168  0.67368248    -0.05500
N1780       N  0.41530975  0.61876017  0.69206358    -0.63700
N1781       N  0.40217245  0.62783850  0.66609739    -0.06200
N1782       N  0.39138677  0.63487642  0.67970800    -0.63300
N1783       N  0.41545346  0.58879882  0.64361492    -0.05100
N1784       N  0.41389251  0.57054179  0.64399421    -0.64000
Mn1785     Mn  0.40005961  0.62878406  0.63419563     1.10700
C1786       C  0.39801589  0.56714392  0.63472687     0.99000
C1787       C  0.39993444  0.62898025  0.69582298     0.99100
N1788       N  0.47223459  0.62760458  0.66286372    -0.06300
N1789       N  0.48434870  0.63532653  0.67432356    -0.61600
N1790       N  0.45872504  0.58846632  0.64127669    -0.05600
N1791       N  0.46138567  0.57028105  0.63900128    -0.58400
N1792       N  0.47120993  0.59797015  0.63172307    -0.06900
N1793       N  0.48255114  0.58661190  0.62257380    -0.61200
N1794       N  0.45962164  0.61819277  0.67233051    -0.05900
N1795       N  0.46289231  0.61908439  0.69049109    -0.58400
Mn1796     Mn  0.47183066  0.62841634  0.63227149     1.20200
Mn1797     Mn  0.43745971  0.60325027  0.65796037     1.10100
Cl1798     Cl  0.43603939  0.62867440  0.63333026    -0.86300
C1799       C  0.47826806  0.62993280  0.69143083     0.96000
C1800       C  0.47621025  0.56944541  0.62716684     0.95800
N1801       N  0.65425386  0.47503454  0.63503729    -0.06500
N1802       N  0.66564479  0.48656956  0.64364897    -0.58600
N1803       N  0.63357362  0.46217150  0.59501095    -0.06200
N1804       N  0.63157442  0.46435943  0.57673448    -0.60700
N1805       N  0.62404896  0.47501382  0.60413709    -0.05800
N1806       N  0.61515058  0.48616403  0.59237955    -0.58600
N1807       N  0.66375975  0.46216996  0.62593186    -0.05500
N1808       N  0.68194901  0.46471395  0.62793219    -0.61100
C1809       C  0.68280223  0.47991616  0.63914541     0.95700
C1810       C  0.61993852  0.47930189  0.57538289     0.95500
N1811       N  0.62514200  0.40505775  0.60316028    -0.06700
N1812       N  0.61869925  0.39395518  0.58961350    -0.59200
N1813       N  0.66380151  0.41893631  0.62559639    -0.04800
N1814       N  0.68208924  0.41775195  0.62591375    -0.60500
N1815       N  0.65600406  0.40498478  0.63482612    -0.06700
N1816       N  0.66950234  0.39390309  0.64174087    -0.59500
N1817       N  0.63444396  0.41898913  0.59544664    -0.04400
N1818       N  0.63463788  0.41778171  0.57714928    -0.60500
Mn1819     Mn  0.64911575  0.44052464  0.61029804     1.18400
C1820       C  0.62487385  0.40230129  0.57345173     0.97800
C1821       C  0.68573776  0.40228694  0.63592909     0.98400
N1822       N  0.59328040  0.47514002  0.63436456    -0.06700
N1823       N  0.58189374  0.48640663  0.62515613    -0.63000
N1824       N  0.61400167  0.46246378  0.67459531    -0.05500
N1825       N  0.61608194  0.46493256  0.69281738    -0.63700
N1826       N  0.62345975  0.47509156  0.66518530    -0.06200
N1827       N  0.63240121  0.48630375  0.67665805    -0.63300
N1828       N  0.58380479  0.46241997  0.64362671    -0.05100
N1829       N  0.56563378  0.46481817  0.64108729    -0.64000
Mn1830     Mn  0.62374601  0.47561351  0.63469496     1.10700
C1831       C  0.56476618  0.47975735  0.62943279     0.99000
C1832       C  0.62771964  0.47976023  0.69378446     0.99100
N1833       N  0.62283941  0.40513824  0.66699671    -0.06300
N1834       N  0.62964435  0.39391914  0.68034215    -0.61600
N1835       N  0.58380939  0.41893818  0.64462537    -0.05600
N1836       N  0.56550500  0.41740075  0.64432720    -0.58400
N1837       N  0.59201382  0.40508938  0.63546149    -0.06900
N1838       N  0.57889375  0.39377944  0.62861379    -0.61200
N1839       N  0.61335850  0.41896075  0.67488893    -0.05900
N1840       N  0.61338621  0.41749352  0.69322576    -0.58400
Mn1841     Mn  0.62399451  0.40376212  0.63511794     1.20200
Mn1842     Mn  0.59843184  0.44069664  0.65974058     1.10100
Cl1843     Cl  0.62379093  0.43980056  0.63500307    -0.86300
C1844       C  0.62351679  0.40199250  0.69661559     0.96000
C1845       C  0.56241880  0.40184079  0.63434960     0.95800
N1846       N  0.34248165  0.60209035  0.38361280    -0.06500
N1847       N  0.32932760  0.61307722  0.37599843    -0.58600
N1848       N  0.36332024  0.58859246  0.42358316    -0.06200
N1849       N  0.36329407  0.59016359  0.44192257    -0.60700
N1850       N  0.37321247  0.60196812  0.41559842    -0.05800
N1851       N  0.38036404  0.61290016  0.42889699    -0.58600
N1852       N  0.33428984  0.58840471  0.39289397    -0.05500
N1853       N  0.31602693  0.58966830  0.39196432    -0.61100
C1854       C  0.31289983  0.60491600  0.38149074     0.95700
C1855       C  0.37391634  0.60520121  0.44525128     0.95500
N1856       N  0.37306975  0.53219443  0.41508173    -0.06700
N1857       N  0.38163126  0.52112566  0.42718701    -0.59200
N1858       N  0.33361831  0.54509795  0.39316893    -0.04800
N1859       N  0.31539699  0.54223597  0.39204580    -0.60500
N1860       N  0.34290707  0.53206855  0.38403690    -0.06700
N1861       N  0.33127055  0.52013431  0.37626979    -0.59500
N1862       N  0.36362709  0.54532213  0.42392392    -0.04400
N1863       N  0.36531311  0.54344327  0.44223038    -0.60500
Mn1864     Mn  0.34847177  0.56691490  0.40859544     1.18400
C1865       C  0.37667845  0.52838552  0.44399275     0.97800
C1866       C  0.31420901  0.52670961  0.38132223     0.98400
N1867       N  0.40647742  0.60134935  0.38339256    -0.06700
N1868       N  0.41983827  0.61263817  0.38983692    -0.63000
N1869       N  0.38506319  0.58757885  0.34413081    -0.05500
N1870       N  0.38502435  0.58876689  0.32579646    -0.63700
N1871       N  0.37551028  0.60142639  0.35183185    -0.06200
N1872       N  0.36849129  0.61233069  0.33833508    -0.63300
N1873       N  0.41442201  0.58722770  0.37444572    -0.05100
N1874       N  0.43274095  0.58850568  0.37451577    -0.64000
Mn1875     Mn  0.37443847  0.60299225  0.38364100     1.10700
C1876       C  0.43616075  0.60421723  0.38410107     0.99000
C1877       C  0.37471768  0.60409120  0.32217634     0.99100
N1878       N  0.37404132  0.53171619  0.35356720    -0.06300
N1879       N  0.36538207  0.52061741  0.34170150    -0.61600
N1880       N  0.41370307  0.54392334  0.37539531    -0.05600
N1881       N  0.43186676  0.54123361  0.37749729    -0.58400
N1882       N  0.40418247  0.53126353  0.38469376    -0.06900
N1883       N  0.41561845  0.51971761  0.39354164    -0.61200
N1884       N  0.38376162  0.54437876  0.34446287    -0.05900
N1885       N  0.38214226  0.54211840  0.32619018    -0.58400
Mn1886     Mn  0.37355127  0.53118136  0.38432530     1.20200
Mn1887     Mn  0.39948301  0.56577790  0.35940974     1.10100
Cl1888     Cl  0.37400951  0.56700547  0.38401106    -0.86300
C1889       C  0.37053835  0.52734075  0.32473708     0.96000
C1890       C  0.43277271  0.52617843  0.38894614     0.95800
N1891       N  0.59120410  0.12881932  0.90852175    -0.06500
N1892       N  0.57787764  0.12245345  0.89707836    -0.58600
N1893       N  0.61277212  0.16800083  0.92298816    -0.06200
N1894       N  0.61354078  0.18631884  0.92226872    -0.60700
N1895       N  0.62229758  0.16024193  0.90912789    -0.05800
N1896       N  0.62991739  0.17370572  0.89863736    -0.58600
N1897       N  0.58318819  0.13801371  0.92244586    -0.05500
N1898       N  0.56490181  0.13823600  0.92082977    -0.61100
C1899       C  0.56149448  0.12856070  0.90514646     0.95700
C1900       C  0.62417926  0.18987922  0.90720142     0.95500
N1901       N  0.62227897  0.15851768  0.97919920    -0.06700
N1902       N  0.63003897  0.17000099  0.99127567    -0.59200
N1903       N  0.58318379  0.13653767  0.96589145    -0.04800
N1904       N  0.56500946  0.13449726  0.96859947    -0.60500
N1905       N  0.59272133  0.12725060  0.97860757    -0.06700
N1906       N  0.58133480  0.11850868  0.99019562    -0.59500
N1907       N  0.61272574  0.16788700  0.96656913    -0.04400
N1908       N  0.61357652  0.18608730  0.96987777    -0.60500
Mn1909     Mn  0.59773337  0.15283913  0.94441200     1.18400
C1910       C  0.62455842  0.18710151  0.98527844     0.97800
C1911       C  0.56415981  0.12309141  0.98372504     0.98400
N1912       N  0.65519799  0.12814711  0.90852588    -0.06700
N1913       N  0.66822246  0.13506901  0.89704097    -0.63000
N1914       N  0.63445180  0.08849465  0.92222448    -0.05500
N1915       N  0.63520894  0.07021740  0.92043605    -0.63700
N1916       N  0.62488205  0.09632960  0.90844311    -0.06200
N1917       N  0.61887031  0.08294152  0.89691575    -0.63300
N1918       N  0.66349162  0.11892540  0.92225317    -0.05100
N1919       N  0.68177034  0.11912395  0.92041190    -0.64000
Mn1920     Mn  0.62331433  0.12835382  0.90738315     1.10700
C1921       C  0.68471722  0.12919481  0.90482883     0.99000
C1922       C  0.62551630  0.06671245  0.90478875     0.99100
N1923       N  0.62416045  0.09750828  0.97850959    -0.06300
N1924       N  0.61536561  0.08579507  0.98969438    -0.61600
N1925       N  0.66358996  0.11970894  0.96585045    -0.05600
N1926       N  0.68175049  0.12211377  0.96848240    -0.58400
N1927       N  0.65388549  0.12883308  0.97858711    -0.06900
N1928       N  0.66510300  0.13784559  0.99002627    -0.61200
N1929       N  0.63380683  0.08836173  0.96576743    -0.05900
N1930       N  0.63199460  0.07009657  0.96808795    -0.58400
Mn1931     Mn  0.62329067  0.12799670  0.97920688     1.20200
Mn1932     Mn  0.64910299  0.10363043  0.94403374     1.10100
Cl1933     Cl  0.62333564  0.12816809  0.94339759    -0.86300
C1934       C  0.62033754  0.06881189  0.98299819     0.96000
C1935       C  0.68240234  0.13359045  0.98354201     0.95800
N1936       N  0.15272166  0.97490947  0.63381678    -0.06500
N1937       N  0.16404487  0.98661641  0.64227711    -0.58600
N1938       N  0.13133146  0.96320276  0.59394342    -0.06200
N1939       N  0.12971658  0.96690935  0.57585131    -0.60700
N1940       N  0.12182386  0.97547484  0.60386369    -0.05800
N1941       N  0.11338750  0.98771800  0.59288059    -0.58600
N1942       N  0.16227769  0.96249970  0.62413769    -0.05500
N1943       N  0.18045355  0.96555880  0.62562134    -0.61100
C1944       C  0.18123724  0.98058103  0.63711414     0.95700
C1945       C  0.11834981  0.98215099  0.57547954     0.95500
N1946       N  0.12388083  0.90538325  0.60058600    -0.06700
N1947       N  0.11782249  0.89410698  0.58703008    -0.59200
N1948       N  0.16277679  0.91894394  0.62257083    -0.04800
N1949       N  0.18110727  0.91764296  0.62272032    -0.60500
N1950       N  0.15501969  0.90483921  0.63165343    -0.06700
N1951       N  0.16846022  0.89362560  0.63832180    -0.59500
N1952       N  0.13285055  0.91957713  0.59288543    -0.04400
N1953       N  0.13319690  0.91831046  0.57454311    -0.60500
Mn1954     Mn  0.14755466  0.94102269  0.60811957     1.18400
C1955       C  0.12383619  0.90255853  0.57088141     0.97800
C1956       C  0.18464662  0.90198721  0.63251667     0.98400
N1957       N  0.09177716  0.97368274  0.63495012    -0.06700
N1958       N  0.07980734  0.98440789  0.62586366    -0.63000
N1959       N  0.11407432  0.96022041  0.67418990    -0.05500
N1960       N  0.11645513  0.96244737  0.69241852    -0.63700
N1961       N  0.12293605  0.97328834  0.66481364    -0.06200
N1962       N  0.13175597  0.98457221  0.67628408    -0.63300
N1963       N  0.08293030  0.96061789  0.64432645    -0.05100
N1964       N  0.06466538  0.96218350  0.64204129    -0.64000
Mn1965     Mn  0.12223496  0.97483531  0.63438707     1.10700
C1966       C  0.06303808  0.97700459  0.63040759     0.99000
C1967       C  0.12767004  0.97762489  0.69337945     0.99100
N1968       N  0.12288518  0.90332487  0.66470519    -0.06300
N1969       N  0.12998288  0.89185710  0.67774461    -0.61600
N1970       N  0.08328976  0.91770589  0.64360970    -0.05600
N1971       N  0.06495929  0.91681953  0.64309011    -0.58400
N1972       N  0.09114361  0.90421478  0.63366668    -0.06900
N1973       N  0.07769262  0.89368311  0.62618087    -0.61200
N1974       N  0.11355311  0.91691718  0.67310122    -0.05900
N1975       N  0.11386630  0.91507782  0.69137185    -0.58400
Mn1976     Mn  0.12320777  0.90312920  0.63259140     1.20200
Mn1977     Mn  0.09826556  0.93883405  0.65910816     1.10100
Cl1978     Cl  0.12282951  0.93908444  0.63347635    -0.86300
C1979       C  0.12408921  0.89959690  0.69432451     0.96000
C1980       C  0.06141888  0.90193340  0.63232056     0.95800
N1981       N  0.12483996  0.65976873  0.97924660    -0.06500
N1982       N  0.13365617  0.67104189  0.99078186    -0.58600
N1983       N  0.08442602  0.64066805  0.96571936    -0.06200
N1984       N  0.06605556  0.63954443  0.96751619    -0.60700
N1985       N  0.09285988  0.63077694  0.97874532    -0.05800
N1986       N  0.08050436  0.62246658  0.98962155    -0.58600
N1987       N  0.11639558  0.66941465  0.96604326    -0.05500
N1988       N  0.11903776  0.68754212  0.96836719    -0.61100
C1989       C  0.12996068  0.68825790  0.98376342     0.95700
C1990       C  0.06392147  0.62803973  0.98242045     0.95500
N1991       N  0.09344826  0.63035395  0.90931032    -0.06700
N1992       N  0.07993839  0.62301790  0.89875830    -0.59200
N1993       N  0.11687381  0.66875096  0.92271814    -0.04800
N1994       N  0.11747641  0.68696949  0.92068771    -0.60500
N1995       N  0.12620917  0.66009176  0.90928758    -0.06700
N1996       N  0.13363683  0.67282342  0.89778633    -0.59500
N1997       N  0.08568130  0.64062950  0.92259125    -0.04400
N1998       N  0.06736951  0.64071633  0.92137912    -0.60500
Mn1999     Mn  0.10065711  0.65516458  0.94422619     1.18400
C2000       C  0.06373396  0.62978587  0.90661397     0.97800
C2001       C  0.12793145  0.68951492  0.90530754     0.98400
N2002       N  0.12193211  0.59854774  0.97998656    -0.06700
N2003       N  0.11255113  0.58734471  0.99129768    -0.63000
N2004       N  0.16319474  0.61782965  0.96805069    -0.05500
N2005       N  0.18141840  0.61954910  0.97070428    -0.63700
N2006       N  0.15381581  0.62775813  0.98041046    -0.06200
N2007       N  0.16532536  0.63664237  0.99163198    -0.63300
N2008       N  0.13127428  0.58877368  0.96747334    -0.05100
N2009       N  0.12862579  0.57068872  0.96999933    -0.64000
Mn2010     Mn  0.12332574  0.62918290  0.98021064     1.10700
C2011       C  0.11681748  0.57005447  0.98478759     0.99000
C2012       C  0.18244125  0.63143102  0.98539723     0.99100
N2013       N  0.15737179  0.62605107  0.91069827    -0.06300
N2014       N  0.17138898  0.63264898  0.90020332    -0.61600
N2015       N  0.13341170  0.58797747  0.92412065    -0.05600
N2016       N  0.13283710  0.56968085  0.92239546    -0.58400
N2017       N  0.12464241  0.59641471  0.91019519    -0.06900
N2018       N  0.11760813  0.58353748  0.89874026    -0.61200
N2019       N  0.16446163  0.61640269  0.92479452    -0.05900
N2020       N  0.18280995  0.61608987  0.92425131    -0.58400
Mn2021     Mn  0.12544544  0.62821928  0.90857934     1.20200
Mn2022     Mn  0.14832858  0.60245046  0.94613257     1.10100
Cl2023     Cl  0.12445925  0.62874182  0.94446349    -0.86300
C2024       C  0.18717077  0.62617915  0.90901831     0.96000
C2025       C  0.12294480  0.56692634  0.90668546     0.95800
N2026       N  0.89904286  0.59769437  0.13431390    -0.06500
N2027       N  0.88711895  0.58463450  0.12842178    -0.58600
N2028       N  0.91482992  0.61938999  0.17281125    -0.06200
N2029       N  0.91422118  0.61987616  0.19116478    -0.60700
N2030       N  0.90098804  0.62913015  0.16531688    -0.05800
N2031       N  0.89058295  0.63654680  0.17908317    -0.58600
N2032       N  0.91291685  0.58945381  0.14332568    -0.05500
N2033       N  0.91087925  0.57128396  0.14389368    -0.61100
C2034       C  0.89493085  0.56821160  0.13465749     0.95700
C2035       C  0.89922326  0.63052803  0.19515878     0.95500
N2036       N  0.97099118  0.62644389  0.16173253    -0.06700
N2037       N  0.98310284  0.63451964  0.17295479    -0.59200
N2038       N  0.95603811  0.58722652  0.14115007    -0.04800
N2039       N  0.95816870  0.56888027  0.13971380    -0.60500
N2040       N  0.96876503  0.59594424  0.13117526    -0.06700
N2041       N  0.97974252  0.58384861  0.12252714    -0.59500
N2042       N  0.95805992  0.61781250  0.17149533    -0.04400
N2043       N  0.96112796  0.61957765  0.18964531    -0.60500
Mn2044     Mn  0.93541601  0.60328997  0.15739401     1.18400
C2045       C  0.97672283  0.63015192  0.19026570     0.97800
C2046       C  0.97293383  0.56708435  0.12790206     0.98400
N2047       N  0.90125994  0.66140305  0.13220162    -0.06700
N2048       N  0.89035512  0.67502968  0.13897828    -0.63000
N2049       N  0.91349542  0.63918549  0.09284485    -0.05500
N2050       N  0.91180140  0.63902143  0.07455108    -0.63700
N2051       N  0.89971146  0.63007305  0.10110612    -0.06200
N2052       N  0.88834785  0.62326850  0.08796513    -0.63300
N2053       N  0.91513161  0.66892115  0.12258727    -0.05100
N2054       N  0.91395487  0.68726396  0.12240145    -0.64000
Mn2055     Mn  0.89893092  0.62961057  0.13322766     1.10700
C2056       C  0.89863591  0.69104542  0.13263174     0.99000
C2057       C  0.89624044  0.62912567  0.07145842     0.99100
N2058       N  0.96933786  0.62667254  0.10046430    -0.06300
N2059       N  0.98066877  0.61832711  0.08844470    -0.61600
N2060       N  0.95872496  0.66699391  0.12236394    -0.05600
N2061       N  0.96207569  0.68503418  0.12452563    -0.58400
N2062       N  0.97135250  0.65689481  0.13118168    -0.06900
N2063       N  0.98346829  0.66770983  0.13974055    -0.61200
N2064       N  0.95682460  0.63686459  0.09159842    -0.05900
N2065       N  0.95943959  0.63588626  0.07329336    -0.58400
Mn2066     Mn  0.97061325  0.62641468  0.13108191     1.20200
Mn2067     Mn  0.93601599  0.65328154  0.10713944     1.10100
Cl2068     Cl  0.93489366  0.62818470  0.13218293    -0.86300
C2069       C  0.97423906  0.62412531  0.07159295     0.96000
C2070       C  0.97747734  0.68516593  0.13551269     0.95800
N2071       N  0.90403701  0.15996566  0.63315404    -0.06500
N2072       N  0.89371953  0.17396209  0.64017585    -0.58600
N2073       N  0.91518159  0.13812281  0.59331242    -0.06200
N2074       N  0.91326400  0.13879778  0.57506328    -0.60700
N2075       N  0.90091790  0.12961798  0.60136933    -0.05800
N2076       N  0.88889588  0.12421899  0.58815484    -0.58600
N2077       N  0.91843690  0.16701721  0.62397629    -0.05500
N2078       N  0.91832208  0.18537129  0.62455326    -0.61100
C2079       C  0.90302189  0.18973511  0.63463745     0.95700
C2080       C  0.89699356  0.13017283  0.57179137     0.95500
N2081       N  0.97050398  0.12287379  0.60012597    -0.06700
N2082       N  0.98072472  0.11369618  0.58769587    -0.59200
N2083       N  0.96196331  0.16340647  0.62280298    -0.04800
N2084       N  0.96624068  0.18126820  0.62476576    -0.60500
N2085       N  0.97441030  0.15275062  0.63119379    -0.06700
N2086       N  0.98738760  0.16303008  0.63921447    -0.59500
N2087       N  0.95816035  0.13363603  0.59169025    -0.04400
N2088       N  0.95972288  0.13217241  0.57331764    -0.60500
Mn2089     Mn  0.93842854  0.15081392  0.60779194     1.18400
C2090       C  0.97374366  0.11958190  0.57107968     0.97800
C2091       C  0.98205904  0.18076301  0.63514232     0.98400
N2092       N  0.89925488  0.09627001  0.63344219    -0.06700
N2093       N  0.88673857  0.08415966  0.62686503    -0.63000
N2094       N  0.91589646  0.11630430  0.67260625    -0.05500
N2095       N  0.91540989  0.11662136  0.69098297    -0.63700
N2096       N  0.90256021  0.12683812  0.66528935    -0.06200
N2097       N  0.89259529  0.13459637  0.67915413    -0.63300
N2098       N  0.91249088  0.08694679  0.64241707    -0.05100
N2099       N  0.90926075  0.06886840  0.64245163    -0.64000
Mn2100     Mn  0.90043451  0.12823149  0.63332667     1.10700
C2101       C  0.89331282  0.06710996  0.63274927     0.99000
C2102       C  0.90096958  0.12797723  0.69511287     0.99100
N2103       N  0.97212102  0.12202737  0.66147415    -0.06300
N2104       N  0.98352933  0.13082429  0.67290591    -0.61600
N2105       N  0.95591012  0.08350658  0.64036289    -0.05600
N2106       N  0.95755319  0.06513535  0.63893627    -0.58400
N2107       N  0.96907014  0.09190203  0.63066092    -0.06900
N2108       N  0.97986992  0.07952644  0.62219966    -0.61200
N2109       N  0.95885081  0.11358698  0.67099224    -0.05900
N2110       N  0.96099209  0.11623375  0.68915178    -0.58400
Mn2111     Mn  0.97210554  0.12226778  0.63081571     1.20200
Mn2112     Mn  0.93576624  0.09978701  0.65678758     1.10100
Cl2113     Cl  0.93635746  0.12526207  0.63214230    -0.86300
C2114       C  0.97638981  0.12704970  0.69004647     0.96000
C2115       C  0.97245502  0.06297833  0.62740387     0.95800
N2116       N  0.58965855  0.97640007  0.13178512    -0.06500
N2117       N  0.57724340  0.98723450  0.12336063    -0.58600
N2118       N  0.61183190  0.96534905  0.17180549    -0.06200
N2119       N  0.61443051  0.96767938  0.18993619    -0.60700
N2120       N  0.62032226  0.97846592  0.16215465    -0.05800
N2121       N  0.62918780  0.98993563  0.17343785    -0.58600
N2122       N  0.58123235  0.96349717  0.14178972    -0.05500
N2123       N  0.56288102  0.96527519  0.14058304    -0.61100
C2124       C  0.56066809  0.98003630  0.12894023     0.95700
C2125       C  0.62538496  0.98297079  0.19063902     0.95500
N2126       N  0.62281527  0.90836112  0.16532794    -0.06700
N2127       N  0.63005557  0.89769615  0.17892423    -0.59200
N2128       N  0.58316405  0.92055688  0.14362327    -0.04800
N2129       N  0.56496412  0.91857216  0.14429149    -0.60500
N2130       N  0.59135321  0.90678893  0.13438269    -0.06700
N2131       N  0.57818736  0.89500252  0.12840875    -0.59500
N2132       N  0.61314102  0.92216639  0.17297062    -0.04400
N2133       N  0.61345106  0.92127524  0.19130631    -0.60500
Mn2134     Mn  0.59718560  0.94285450  0.15775603     1.18400
C2135       C  0.62396605  0.90613752  0.19505567     0.97800
C2136       C  0.56177541  0.90276522  0.13484814     0.98400
N2137       N  0.65076891  0.97944559  0.13174899    -0.06700
N2138       N  0.66138991  0.99207933  0.13979841    -0.63000
N2139       N  0.63119426  0.96427174  0.09244467    -0.05500
N2140       N  0.62983370  0.96599638  0.07409356    -0.63700
N2141       N  0.62073153  0.97681704  0.10097587    -0.06200
N2142       N  0.61187554  0.98737033  0.08863871    -0.63300
N2143       N  0.66107606  0.96666411  0.12336853    -0.05100
N2144       N  0.67906870  0.97045016  0.12531502    -0.64000
Mn2145     Mn  0.62024061  0.97841585  0.13157272     1.10700
C2146       C  0.67895552  0.98627213  0.13573069     0.99000
C2147       C  0.61764413  0.98035558  0.07199467     0.99100
N2148       N  0.62424459  0.90761436  0.10135285    -0.06300
N2149       N  0.61749310  0.89656499  0.08790459    -0.61600
N2150       N  0.66305173  0.92278063  0.12366862    -0.05600
N2151       N  0.68137851  0.92140572  0.12333487    -0.58400
N2152       N  0.65542721  0.90857385  0.13266777    -0.06900
N2153       N  0.66901180  0.89718972  0.13879605    -0.61200
N2154       N  0.63355197  0.92146451  0.09348151    -0.05900
N2155       N  0.63340722  0.92025181  0.07516001    -0.58400
Mn2156     Mn  0.62346321  0.90656054  0.13338642     1.20200
Mn2157     Mn  0.64755977  0.94373778  0.10814650     1.10100
Cl2158     Cl  0.62213566  0.94273194  0.13271133    -0.86300
C2159       C  0.62345009  0.90484239  0.07161394     0.96000
C2160       C  0.68513705  0.90556756  0.13277338     0.95800
C2161       C  0.02835172  0.61208683  0.01125406     0.29400
C2162       C  0.02188406  0.60291255  0.02730063    -0.37000
C2163       C  0.00551096  0.61017468  0.03526269     0.15400
C2164       C  0.99586240  0.62524297  0.02776143     0.21200
C2165       C  0.00200135  0.63404752  0.01125367    -0.35100
C2166       C  0.01862785  0.62694757  0.00341893     0.15300
O2167       O  0.04506952  0.60984116  0.00387923    -0.27100
C2168       C  0.04607727  0.62326201  0.99105774     0.05100
C2169       C  0.02995453  0.63419972  0.98984692    -0.32000
O2170       O  0.98260422  0.63145931  0.03909870    -0.23800
C2171       C  0.98392077  0.62023961  0.05395406    -0.03800
C2172       C  0.99778412  0.60666546  0.05227645    -0.18200
H2173       H  0.02998631  0.59197738  0.03407225     0.19800
H2174       H  0.99521140  0.64652086  0.00583872     0.18100
H2175       H  0.02781056  0.64687865  0.98176394     0.18100
H2176       H  0.00255827  0.59676730  0.06277105     0.13900
C2177       C  0.01813046  0.99528723  0.62638597     0.29400
C2178       C  0.00075985  0.00090919  0.63377883    -0.37000
C2179       C  0.99332520  0.01759976  0.62645829     0.15400
C2180       C  0.00227590  0.02773496  0.61256936     0.21200
C2181       C  0.01909708  0.02167521  0.60462109    -0.35100
C2182       C  0.02668851  0.00533725  0.61218992     0.15300
O2183       O  0.02947682  0.98274141  0.63386016    -0.27100
C2184       C  0.04533130  0.98500596  0.62433613     0.05100
C2185       C  0.04433043  0.99859407  0.61052874    -0.32000
O2186       O  0.99511333  0.04451933  0.61033995    -0.23800
C2187       C  0.98130690  0.04519329  0.62276205    -0.03800
C2188       C  0.97925947  0.02878336  0.63306087    -0.18200
H2189       H  0.99451491  0.99390670  0.64571141     0.19800
H2190       H  0.02675507  0.03021850  0.59469399     0.18100
H2191       H  0.05560786  0.00415598  0.60203382     0.18100
H2192       H  0.97029231  0.02635077  0.64507762     0.13900
C2193       C  0.61713753  0.02460407  0.00337239     0.29400
C2194       C  0.62455042  0.00742029  0.00951332    -0.37000
C2195       C  0.61701411  0.00037508  0.02626833     0.15400
C2196       C  0.60293223  0.00950340  0.03605655     0.21200
C2197       C  0.59498934  0.02615918  0.02949387    -0.35100
C2198       C  0.60276565  0.03336965  0.01305424     0.15300
O2199       O  0.62451351  0.03551421  0.99039781    -0.27100
C2200       C  0.61473440  0.05134491  0.99196295     0.05100
C2201       C  0.60091037  0.05071995  0.00562032    -0.32000
O2202       O  0.60049056  0.00269669  0.05298563    -0.23800
C2203       C  0.61301160  0.98897170  0.05407529    -0.03800
C2204       C  0.62350763  0.98659212  0.03779486    -0.18200
H2205       H  0.63657351  0.00099437  0.00277253     0.19800
H2206       H  0.58482548  0.03396094  0.03768873     0.18100
H2207       H  0.59210891  0.06206872  0.01063332     0.18100
H2208       H  0.63558556  0.97759358  0.03565239     0.13900
C2209       C  0.39467418  0.62589394  0.52338108     0.29400
C2210       C  0.40050967  0.62978719  0.50487894    -0.37000
C2211       C  0.38967617  0.62204555  0.49046093     0.15400
C2212       C  0.37426393  0.61110016  0.49416142     0.21200
C2213       C  0.36839320  0.60725980  0.51268292    -0.35100
C2214       C  0.37918079  0.61507856  0.52711328     0.15300
O2215       O  0.40289225  0.63164923  0.53880240    -0.27100
C2216       C  0.39264819  0.62453963  0.55276649     0.05100
C2217       C  0.37761355  0.61402128  0.54634187    -0.32000
O2218       O  0.36667800  0.60450718  0.47872241    -0.23800
C2219       C  0.37716287  0.61137498  0.46480981    -0.03800
C2220       C  0.39171808  0.62251272  0.47127936    -0.18200
H2221       H  0.41277035  0.63815144  0.50195591     0.19800
H2222       H  0.35636649  0.59856988  0.51561536     0.18100
H2223       H  0.36718184  0.60669523  0.55453629     0.18100
H2224       H  0.40264018  0.62919673  0.46317025     0.13900
C2225       C  0.49708533  0.52540279  0.62402379     0.29400
C2226       C  0.50226984  0.50779611  0.63110626    -0.37000
C2227       C  0.51968988  0.50088040  0.62509983     0.15400
C2228       C  0.53103851  0.51054343  0.61272718     0.21200
C2229       C  0.52551715  0.52771435  0.60505552    -0.35100
C2230       C  0.50832733  0.53475786  0.61132415     0.15300
O2231       O  0.48333115  0.53602023  0.63043490    -0.27100
C2232       C  0.48589543  0.55226089  0.62169759     0.05100
C2233       C  0.50105383  0.55221559  0.60949338    -0.32000
O2234       O  0.54802698  0.50347490  0.61174451    -0.23800
C2235       C  0.54757032  0.48907597  0.62351056    -0.03800
C2236       C  0.53024877  0.48652619  0.63201563    -0.18200
H2237       H  0.49417046  0.50085077  0.64189451     0.19800
H2238       H  0.53481131  0.53587301  0.59627894     0.18100
H2239       H  0.50696616  0.56392687  0.60188764     0.18100
H2240       H  0.52667276  0.47692644  0.64321641     0.13900
C2241       C  0.48450785  0.37730169  0.61759272     0.29400
C2242       C  0.50300315  0.37247681  0.61234809    -0.37000
C2243       C  0.51743599  0.38207797  0.62156059     0.15400
C2244       C  0.51370881  0.39545617  0.63498685     0.21200
C2245       C  0.49525368  0.40008109  0.64039447    -0.35100
C2246       C  0.48084593  0.39051463  0.63119583     0.15300
O2247       O  0.46905104  0.37110283  0.60978302    -0.27100
C2248       C  0.45519477  0.38032449  0.61845707     0.05100
C2249       C  0.46169514  0.39255409  0.63210097    -0.32000
O2250       O  0.52903835  0.40350897  0.64110703    -0.23800
C2251       C  0.54296463  0.39522864  0.63169061    -0.03800
C2252       C  0.53660549  0.38163640  0.61927584    -0.18200
H2253       H  0.50589521  0.36235770  0.60142538     0.19800
H2254       H  0.49234096  0.41083382  0.65068619     0.18100
H2255       H  0.45364285  0.40221029  0.64063395     0.18100
H2256       H  0.54475412  0.37323026  0.60958866     0.13900
C2257       C  0.39195985  0.49913660  0.47966147     0.29400
C2258       C  0.40008499  0.48250562  0.48607947    -0.37000
C2259       C  0.39250131  0.47513108  0.50254725     0.15400
C2260       C  0.37815175  0.48371571  0.51240878     0.21200
C2261       C  0.37055679  0.50089556  0.50641522    -0.35100
C2262       C  0.37791173  0.50811704  0.48963267     0.15300
O2263       O  0.39418263  0.50603198  0.46272836    -0.27100
C2264       C  0.38156486  0.51968344  0.46182083     0.05100
C2265       C  0.37124642  0.52194259  0.47823617    -0.32000
O2266       O  0.37114971  0.47273666  0.52556744    -0.23800
C2267       C  0.38116870  0.45703742  0.52394882    -0.03800
C2268       C  0.39472320  0.45782863  0.51002213    -0.18200
H2269       H  0.41027800  0.47485172  0.47778345     0.19800
H2270       H  0.35857912  0.50722639  0.51332433     0.18100
H2271       H  0.35914026  0.53086358  0.48053688     0.18100
H2272       H  0.40372046  0.44663867  0.50500051     0.13900
C2273       C  0.38528662  0.48494608  0.63064899     0.29400
C2274       C  0.39503464  0.49826027  0.64127632    -0.37000
C2275       C  0.39156577  0.51722984  0.63680332     0.15400
C2276       C  0.37937034  0.52293986  0.62290339     0.21200
C2277       C  0.36954061  0.50965756  0.61241336    -0.35100
C2278       C  0.37301349  0.49073698  0.61686212     0.15300
O2279       O  0.38702127  0.46637297  0.63158932    -0.27100
C2280       C  0.37560642  0.46030757  0.61816933     0.05100
C2281       C  0.36659309  0.47492895  0.60875422    -0.32000
O2282       O  0.37911824  0.54140398  0.62041594    -0.23800
C2283       C  0.39134598  0.54759334  0.63297525    -0.03800
C2284       C  0.39938744  0.53312410  0.64349467    -0.18200
H2285       H  0.40500335  0.49415605  0.65194177     0.19800
H2286       H  0.36018982  0.51374284  0.60119509     0.18100
H2287       H  0.35703563  0.47404008  0.59704088     0.18100
H2288       H  0.41010349  0.53414822  0.65414184     0.13900
C2289       C  0.63028945  0.50089511  0.73751665     0.29400
C2290       C  0.62265912  0.50713431  0.75452735    -0.37000
C2291       C  0.63001209  0.52385194  0.76151118     0.15400
C2292       C  0.64403742  0.53363347  0.75244735     0.21200
C2293       C  0.65214861  0.52702983  0.73587282    -0.35100
C2294       C  0.64462525  0.51050760  0.72876668     0.15300
O2295       O  0.62324525  0.48770889  0.72680283    -0.27100
C2296       C  0.63318530  0.48901825  0.71108602     0.05100
C2297       C  0.64682039  0.50274789  0.71159503    -0.32000
O2298       O  0.64654284  0.55039751  0.75951430    -0.23800
C2299       C  0.63414917  0.55127476  0.77337340    -0.03800
C2300       C  0.62362519  0.53512175  0.77548771    -0.18200
H2301       H  0.61072474  0.50036914  0.76096274     0.19800
H2302       H  0.66238696  0.53511616  0.72815662     0.18100
H2303       H  0.65571024  0.50755938  0.70026192     0.18100
H2304       H  0.61172050  0.53284600  0.78463526     0.13900
C2305       C  0.52418031  0.63319329  0.75908229     0.29400
C2306       C  0.50718539  0.62528166  0.75345609    -0.37000
C2307       C  0.50023157  0.63150876  0.73617450     0.15400
C2308       C  0.50930091  0.64478667  0.72539092     0.21200
C2309       C  0.52585829  0.65314350  0.73131274    -0.35100
C2310       C  0.53294755  0.64671134  0.74835168     0.15300
O2311       O  0.53482690  0.62713103  0.77288043    -0.27100
C2312       C  0.55049274  0.63687349  0.77080537     0.05100
C2313       C  0.55005195  0.64940162  0.75595848    -0.32000
O2314       O  0.50211489  0.64649914  0.70858362    -0.23800
C2315       C  0.48819150  0.63433079  0.70859741    -0.03800
C2316       C  0.48613155  0.62469711  0.72541696    -0.18200
H2317       H  0.50070915  0.61397346  0.76119620     0.19800
H2318       H  0.53352425  0.66278500  0.72247049     0.18100
H2319       H  0.56135252  0.65788322  0.75049844     0.18100
H2320       H  0.47677822  0.61323655  0.72859199     0.13900
C2321       C  0.28000959  0.49511307  0.36788362     0.29400
C2322       C  0.27395562  0.47842303  0.35979615    -0.37000
C2323       C  0.25731784  0.47112217  0.36698099     0.15400
C2324       C  0.24708595  0.47976018  0.38101729     0.21200
C2325       C  0.25285241  0.49684350  0.38873527    -0.35100
C2326       C  0.26970361  0.50406768  0.38167213     0.15300
O2327       O  0.29657750  0.50260603  0.36532083    -0.27100
C2328       C  0.29689664  0.51666496  0.37743353     0.05100
C2329       C  0.28049066  0.51845461  0.38786975    -0.32000
O2330       O  0.23352427  0.46904642  0.38745845    -0.23800
C2331       C  0.23525347  0.45344934  0.37742106    -0.03800
C2332       C  0.24964758  0.45402877  0.36436134    -0.18200
H2333       H  0.28240983  0.47088329  0.34965850     0.19800
H2334       H  0.24550409  0.50328564  0.40037189     0.18100
H2335       H  0.27769055  0.52779825  0.39948988     0.18100
H2336       H  0.25473043  0.44285273  0.35541979     0.13900
C2337       C  0.25512934  0.36036646  0.48031589     0.29400
C2338       C  0.27190741  0.35215264  0.48630437    -0.37000
C2339       C  0.27912123  0.35884512  0.50317360     0.15400
C2340       C  0.27024057  0.37244821  0.51376529     0.21200
C2341       C  0.25294923  0.38012563  0.50814975    -0.35100
C2342       C  0.24590807  0.37370283  0.49095679     0.15300
O2343       O  0.24795183  0.35856662  0.46347620    -0.27100
C2344       C  0.23383687  0.37074944  0.46322652     0.05100
C2345       C  0.23168992  0.38045584  0.48002063    -0.32000
O2346       O  0.28113556  0.37902965  0.52711508    -0.23800
C2347       C  0.29711223  0.36956565  0.52487459    -0.03800
C2348       C  0.29653935  0.35663664  0.51041881    -0.18200
H2349       H  0.27971664  0.34252263  0.47751064     0.19800
H2350       H  0.24637142  0.39153406  0.51572495     0.18100
H2351       H  0.22224028  0.39198190  0.48304230     0.18100
H2352       H  0.30796944  0.34831897  0.50479060     0.13900
C2353       C  0.52102068  0.75565204  0.63863092     0.29400
C2354       C  0.50427202  0.74944232  0.63067136    -0.37000
C2355       C  0.49733115  0.73253732  0.63773646     0.15400
C2356       C  0.50618399  0.72252808  0.65179426     0.21200
C2357       C  0.52246619  0.72912826  0.66027941    -0.35100
C2358       C  0.52955384  0.74584805  0.65302596     0.15300
O2359       O  0.53172531  0.76902546  0.63185789    -0.27100
C2360       C  0.54722831  0.76765818  0.64202658     0.05100
C2361       C  0.54658676  0.75369145  0.65554373    -0.32000
O2362       O  0.49926712  0.70563892  0.65395323    -0.23800
C2363       C  0.48570013  0.70494777  0.64131480    -0.03800
C2364       C  0.48364589  0.72131743  0.63098282    -0.18200
H2365       H  0.49803761  0.75638047  0.61869035     0.19800
H2366       H  0.53003257  0.72091578  0.67057641     0.18100
H2367       H  0.55777907  0.74881131  0.66456039     0.18100
H2368       H  0.47471750  0.72380858  0.61898334     0.13900
C2369       C  0.60806790  0.72141002  0.75042150     0.29400
C2370       C  0.59965442  0.72748717  0.73380626    -0.37000
C2371       C  0.60660799  0.74412005  0.72624894     0.15400
C2372       C  0.62071943  0.75428494  0.73457274     0.21200
C2373       C  0.62876616  0.74847811  0.75153420    -0.35100
C2374       C  0.62193125  0.73168678  0.75902357     0.15300
O2375       O  0.60583856  0.70483556  0.75810593    -0.27100
C2376       C  0.61825058  0.70454675  0.77191076     0.05100
C2377       C  0.62852297  0.72093024  0.77335519    -0.32000
O2378       O  0.62686406  0.76788931  0.72371270    -0.23800
C2379       C  0.61655289  0.76629864  0.70833282    -0.03800
C2380       C  0.60362800  0.75190559  0.70917749    -0.18200
H2381       H  0.58944785  0.71907484  0.72651376     0.19800
H2382       H  0.64046830  0.75576935  0.75770015     0.18100
H2383       H  0.64035212  0.72369843  0.78236680     0.18100
H2384       H  0.59452011  0.74692368  0.69817824     0.13900
C2385       C  0.25591683  0.28477543  0.40475375     0.29400
C2386       C  0.27318616  0.27960394  0.41232714    -0.37000
C2387       C  0.28031189  0.26233954  0.40653192     0.15400
C2388       C  0.27095317  0.25070349  0.39432108     0.21200
C2389       C  0.25324695  0.25560803  0.38724161    -0.35100
C2390       C  0.24624108  0.27315962  0.39277663     0.15300
O2391       O  0.24850068  0.30156427  0.40584727    -0.27100
C2392       C  0.23382750  0.30082439  0.39455634     0.05100
C2393       C  0.23149982  0.28345118  0.38611817    -0.32000
O2394       O  0.28169216  0.23690787  0.38821867    -0.23800
C2395       C  0.29800005  0.23990418  0.39661728    -0.03800
C2396       C  0.29786636  0.25532150  0.40837488    -0.18200
H2397       H  0.28128845  0.28915066  0.42078108     0.19800
H2398       H  0.24625270  0.24714385  0.37685868     0.18100
H2399       H  0.22155804  0.27958785  0.37539793     0.18100
H2400       H  0.30957818  0.26160020  0.41557584     0.13900
C2401       C  0.36735153  0.27677384  0.51216087     0.29400
C2402       C  0.37397702  0.25884985  0.50731561    -0.37000
C2403       C  0.36782540  0.25187359  0.49001875     0.15400
C2404       C  0.35570017  0.26177505  0.47857053     0.21200
C2405       C  0.34849971  0.27922877  0.48375935    -0.35100
C2406       C  0.35493141  0.28632288  0.50074239     0.15300
O2407       O  0.37390974  0.28743704  0.52570356    -0.27100
C2408       C  0.36554869  0.30388643  0.52275655     0.05100
C2409       C  0.35345228  0.30391573  0.50760862    -0.32000
O2410       O  0.35433174  0.25448266  0.46177762    -0.23800
C2411       C  0.36559588  0.23966682  0.46236663    -0.03800
C2412       C  0.37420011  0.23708737  0.47965716    -0.18200
H2413       H  0.38450620  0.25165565  0.51555967     0.19800
H2414       H  0.33991228  0.28749982  0.47434325     0.18100
H2415       H  0.34605476  0.31570324  0.50147912     0.18100
H2416       H  0.38502432  0.22706284  0.48333190     0.13900
C2417       C  0.37472336  0.14898748  0.27453920     0.29400
C2418       C  0.36979704  0.15444807  0.25618213    -0.37000
C2419       C  0.37837251  0.14447119  0.24149323     0.15400
C2420       C  0.39103033  0.13021307  0.24483906     0.21200
C2421       C  0.39594377  0.12472892  0.26320548    -0.35100
C2422       C  0.38726036  0.13462500  0.27790159     0.15300
O2423       O  0.36853811  0.15667122  0.29014332    -0.27100
C2424       C  0.37703802  0.14717367  0.30385949     0.05100
C2425       C  0.38893503  0.13317194  0.29708863    -0.32000
O2426       O  0.39790697  0.12318127  0.22920749    -0.23800
C2427       C  0.38957684  0.13287632  0.21551013    -0.03800
C2428       C  0.37714249  0.14637123  0.22231588    -0.18200
H2429       H  0.36004774  0.16581597  0.25356458     0.19800
H2430       H  0.40598406  0.11361570  0.26582013     0.18100
H2431       H  0.39770876  0.12364351  0.30502452     0.18100
H2432       H  0.36895594  0.15643652  0.21441416     0.13900
C2433       C  0.52401500  0.00812227  0.11351449     0.29400
C2434       C  0.51681337  0.02411466  0.10480746    -0.37000
C2435       C  0.50003264  0.03104199  0.11216960     0.15400
C2436       C  0.49065022  0.02260611  0.12689156     0.21200
C2437       C  0.49740897  0.00599355  0.13501755    -0.35100
C2438       C  0.51448643  0.99925879  0.12788062     0.15300
O2439       O  0.54118167  0.00175952  0.11138827    -0.27100
C2440       C  0.54265089  0.98852907  0.12436287     0.05100
C2441       C  0.52643796  0.98610659  0.13490866    -0.32000
O2442       O  0.47755263  0.03356480  0.13406833    -0.23800
C2443       C  0.47873959  0.04908330  0.12382119    -0.03800
C2444       C  0.49220104  0.04817385  0.10982908    -0.18200
H2445       H  0.52477013  0.03177412  0.09440227     0.19800
H2446       H  0.49089225  0.99990248  0.14730297     0.18100
H2447       H  0.52449242  0.97740222  0.14719933     0.18100
H2448       H  0.49707629  0.05938123  0.10083590     0.13900
C2449       C  0.49766685  0.12195498  0.03173309     0.29400
C2450       C  0.50282951  0.12890340  0.01404921    -0.37000
C2451       C  0.51984786  0.12211335  0.00679816     0.15400
C2452       C  0.53089938  0.10930341  0.01630094     0.21200
C2453       C  0.52550066  0.10199602  0.03365528    -0.35100
C2454       C  0.50865603  0.10888966  0.04093941     0.15300
O2455       O  0.48375305  0.12816906  0.04227836    -0.27100
C2456       C  0.48597287  0.11889895  0.05832039     0.05100
C2457       C  0.50112330  0.10665265  0.05823106    -0.32000
O2458       O  0.54747073  0.10708195  0.00857066    -0.23800
C2459       C  0.54704950  0.11846464  0.99386245    -0.03800
C2460       C  0.53014516  0.12800632  0.99182552    -0.18200
H2461       H  0.49484406  0.13978989  0.00707149     0.19800
H2462       H  0.53450384  0.09265623  0.04157077     0.18100
H2463       H  0.50659033  0.09836063  0.06972830     0.18100
H2464       H  0.52674162  0.13907640  0.98199387     0.13900
C2465       C  0.35925988  0.61998996  0.27796053     0.29400
C2466       C  0.34713230  0.62805999  0.26476270    -0.37000
C2467       C  0.35178462  0.62514418  0.24581838     0.15400
C2468       C  0.36726319  0.61503153  0.23994622     0.21200
C2469       C  0.37940398  0.60691476  0.25317026    -0.35100
C2470       C  0.37474089  0.60982513  0.27216255     0.15300
O2471       O  0.35725350  0.62028878  0.29647277    -0.27100
C2472       C  0.37171715  0.61015582  0.30257527     0.05100
C2473       C  0.38295902  0.60336702  0.28803822    -0.32000
O2474       O  0.36867499  0.61407028  0.22136559    -0.23800
C2475       C  0.35380825  0.62373892  0.21540233    -0.03800
C2476       C  0.34294349  0.63082932  0.23006024    -0.18200
H2477       H  0.33478120  0.63588776  0.26893700     0.19800
H2478       H  0.39152343  0.59873707  0.24899095     0.18100
H2479       H  0.39515626  0.59433702  0.28904377     0.18100
H2480       H  0.33019508  0.63908031  0.22920641     0.13900
C2481       C  0.24107748  0.64600906  0.03993671     0.29400
C2482       C  0.22417032  0.65391677  0.03397958    -0.37000
C2483       C  0.21718062  0.64714513  0.01706297     0.15400
C2484       C  0.22627042  0.63362674  0.00652747     0.21200
C2485       C  0.24358566  0.62616253  0.01219439    -0.35100
C2486       C  0.25050948  0.63280655  0.02929851     0.15300
O2487       O  0.24835961  0.64807498  0.05667228    -0.27100
C2488       C  0.26273854  0.63622335  0.05675377     0.05100
C2489       C  0.26496198  0.62646437  0.04005171    -0.32000
O2490       O  0.21567923  0.62712928  0.99292453    -0.23800
C2491       C  0.19971777  0.63663073  0.99490199    -0.03800
C2492       C  0.19996546  0.64944458  0.00947389    -0.18200
H2493       H  0.21623702  0.66350875  0.04270656     0.19800
H2494       H  0.25038735  0.61488522  0.00461825     0.18100
H2495       H  0.27461022  0.61510615  0.03701465     0.18100
H2496       H  0.18845985  0.65781431  0.01486929     0.13900
C2497       C  0.36432847  0.27297066  0.63018662     0.29400
C2498       C  0.35498010  0.25988680  0.64151779    -0.37000
C2499       C  0.35808029  0.24086580  0.63721745     0.15400
C2500       C  0.36962016  0.23486502  0.62284122     0.21200
C2501       C  0.37914956  0.24794990  0.61164241    -0.35100
C2502       C  0.37597180  0.26698439  0.61588711     0.15300
O2503       O  0.36264043  0.29151948  0.63092961    -0.27100
C2504       C  0.37340430  0.29746001  0.61686164     0.05100
C2505       C  0.38201044  0.28275019  0.60717187    -0.32000
O2506       O  0.36932524  0.21638285  0.62052870    -0.23800
C2507       C  0.35739610  0.21053019  0.63366927    -0.03800
C2508       C  0.35014446  0.22520486  0.64441485    -0.18200
H2509       H  0.34545355  0.26421401  0.65254014     0.19800
H2510       H  0.38793967  0.24364313  0.60001795     0.18100
H2511       H  0.39104782  0.28356125  0.59498154     0.18100
H2512       H  0.33972392  0.22449554  0.65545175     0.13900
C2513       C  0.37294221  0.14376557  0.49536993     0.29400
C2514       C  0.37855050  0.14820773  0.51372459    -0.37000
C2515       C  0.36880707  0.13933292  0.52831533     0.15400
C2516       C  0.35454607  0.12688942  0.52490839     0.21200
C2517       C  0.34908004  0.12223587  0.50650654    -0.35100
C2518       C  0.35881690  0.13118430  0.49188173     0.15300
O2519       O  0.37938877  0.15149972  0.47993037    -0.27100
C2520       C  0.36947471  0.14384110  0.46616711     0.05100
C2521       C  0.35641625  0.13092398  0.47272595    -0.32000
O2522       O  0.34644097  0.12121944  0.54050043    -0.23800
C2523       C  0.35556552  0.13002918  0.55417189    -0.03800
C2524       C  0.36979471  0.14146389  0.54743429    -0.18200
H2525       H  0.38937179  0.15838817  0.51642196     0.19800
H2526       H  0.33761948  0.11277337  0.50382430     0.18100
H2527       H  0.34617612  0.12321559  0.46474252     0.18100
H2528       H  0.37884991  0.15062322  0.55531167     0.13900
C2529       C  0.24776071  0.02812102  0.64070199     0.29400
C2530       C  0.24302664  0.01035885  0.63378741    -0.37000
C2531       C  0.22558990  0.00338377  0.63959543     0.15400
C2532       C  0.21384889  0.01318984  0.65154358     0.21200
C2533       C  0.21881509  0.03055849  0.65886623    -0.35100
C2534       C  0.23601728  0.03757895  0.65291210     0.15300
O2535       O  0.26181001  0.03861741  0.63493013    -0.27100
C2536       C  0.25887437  0.05485469  0.64362838     0.05100
C2537       C  0.24319097  0.05491666  0.65511115    -0.32000
O2538       O  0.19719693  0.00567455  0.65297296    -0.23800
C2539       C  0.19816983  0.99080605  0.64191338    -0.03800
C2540       C  0.21556292  0.98843722  0.63336252    -0.18200
H2541       H  0.25162714  0.00316994  0.62352169     0.19800
H2542       H  0.20925441  0.03870500  0.66743966     0.18100
H2543       H  0.23706141  0.06658746  0.66267015     0.18100
H2544       H  0.21957958  0.97830491  0.62280071     0.13900
C2545       C  0.49181330  0.28441987  0.36909318     0.29400
C2546       C  0.47500954  0.27851312  0.36118213    -0.37000
C2547       C  0.46796966  0.26162068  0.36799800     0.15400
C2548       C  0.47689105  0.25104399  0.38157450     0.21200
C2549       C  0.49408568  0.25670425  0.38911988    -0.35100
C2550       C  0.50109269  0.27377808  0.38238951     0.15300
O2551       O  0.49904463  0.30114869  0.36699365    -0.27100
C2552       C  0.51322632  0.30124870  0.37893358     0.05100
C2553       C  0.51542986  0.28452679  0.38873121    -0.32000
O2554       O  0.46636972  0.23719501  0.38777814    -0.23800
C2555       C  0.45063702  0.23905144  0.37798614    -0.03800
C2556       C  0.45094347  0.25386586  0.36538579    -0.18200
H2557       H  0.46721022  0.28722363  0.35148075     0.19800
H2558       H  0.50078223  0.24908914  0.40042200     0.18100
H2559       H  0.52488897  0.28151878  0.40019501     0.18100
H2560       H  0.43961207  0.25915070  0.35677362     0.13900
C2561       C  0.47765221  0.38562770  0.51345035     0.29400
C2562       C  0.49470909  0.37743511  0.50802497    -0.37000
C2563       C  0.50276710  0.38456895  0.49159728     0.15400
C2564       C  0.49463514  0.39892603  0.48137687     0.21200
C2565       C  0.47798554  0.40755958  0.48717565    -0.35100
C2566       C  0.46977923  0.40021027  0.50336310     0.15300
O2567       O  0.46618921  0.37903670  0.52631186    -0.27100
C2568       C  0.45085033  0.38947308  0.52431275     0.05100
C2569       C  0.45230911  0.40297831  0.51040389    -0.32000
O2570       O  0.50233294  0.40095816  0.46477518    -0.23800
C2571       C  0.51563111  0.38791357  0.46439508    -0.03800
C2572       C  0.51684033  0.37747125  0.48078812    -0.18200
H2573       H  0.50038287  0.36525293  0.51512088     0.19800
H2574       H  0.47098716  0.41801819  0.47865525     0.18100
H2575       H  0.44149858  0.41229412  0.50515972     0.18100
H2576       H  0.52517116  0.36500941  0.48335083     0.13900
C2577       C  0.61359162  0.38341447  0.52907548     0.29400
C2578       C  0.60436904  0.37234931  0.51580336    -0.37000
C2579       C  0.60814647  0.37643258  0.49684401     0.15400
C2580       C  0.62010425  0.39043009  0.49103673     0.21200
C2581       C  0.62946268  0.40140754  0.50432502    -0.35100
C2582       C  0.62569089  0.39730702  0.52330080     0.15300
O2583       O  0.61158085  0.38263741  0.54760736    -0.27100
C2584       C  0.62262555  0.39626332  0.55372275     0.05100
C2585       C  0.63168731  0.40570833  0.53916768    -0.32000
O2586       O  0.62050716  0.39249613  0.47248311    -0.23800
C2587       C  0.60863777  0.37952754  0.46641705    -0.03800
C2588       C  0.60073302  0.36918873  0.48102419    -0.18200
H2589       H  0.59456321  0.36159124  0.51992544     0.19800
H2590       H  0.63867083  0.41268223  0.50020208     0.18100
H2591       H  0.64109302  0.41749956  0.54014256     0.18100
H2592       H  0.59024454  0.35834375  0.48013536     0.13900
C2593       C  0.50097920  0.48088077  0.39379186     0.29400
C2594       C  0.49517306  0.49784382  0.38569956    -0.37000
C2595       C  0.47790375  0.50489164  0.39196226     0.15400
C2596       C  0.46722195  0.49593353  0.40541859     0.21200
C2597       C  0.47337423  0.47942717  0.41403231    -0.35100
C2598       C  0.49045203  0.47224990  0.40758183     0.15300
O2599       O  0.51463009  0.47006278  0.38753747    -0.27100
C2600       C  0.51271722  0.45440390  0.39743510     0.05100
C2601       C  0.49812227  0.45505799  0.41029257    -0.32000
O2602       O  0.45024193  0.50299353  0.40682669    -0.23800
C2603       C  0.45009230  0.51673278  0.39428736    -0.03800
C2604       C  0.46696293  0.51879741  0.38477935    -0.18200
H2605       H  0.50271395  0.50416634  0.37414279     0.19800
H2606       H  0.46462423  0.47178720  0.42378816     0.18100
H2607       H  0.49271589  0.44377765  0.41887182     0.18100
H2608       H  0.47000837  0.52787101  0.37299267     0.13900
C2609       C  0.48505908  0.60951101  0.38297224     0.29400
C2610       C  0.50346448  0.60412140  0.37801055    -0.37000
C2611       C  0.51803682  0.61443316  0.38612739     0.15400
C2612       C  0.51453087  0.62901676  0.39829279     0.21200
C2613       C  0.49612646  0.63454867  0.40307512    -0.35100
C2614       C  0.48155769  0.62422497  0.39497643     0.15300
O2615       O  0.46956362  0.60114520  0.37772156    -0.27100
C2616       C  0.45578835  0.61053810  0.38632267     0.05100
C2617       C  0.46241223  0.62518794  0.39728575    -0.32000
O2618       O  0.53002232  0.63579466  0.40547480    -0.23800
C2619       C  0.54379876  0.62561888  0.39783966    -0.03800
C2620       C  0.53719554  0.61210749  0.38548925    -0.18200
H2621       H  0.50621170  0.59233161  0.36887597     0.19800
H2622       H  0.49339683  0.64576072  0.41291506     0.18100
H2623       H  0.45443256  0.63471984  0.40602360     0.18100
H2624       H  0.54514991  0.60144568  0.37814223     0.13900
C2625       C  0.52654884  0.60851029  0.51310406     0.29400
C2626       C  0.51985608  0.60008986  0.52945137    -0.37000
C2627       C  0.50323640  0.60752054  0.53669570     0.15400
C2628       C  0.49355132  0.62208732  0.52828598     0.21200
C2629       C  0.49981983  0.62996928  0.51135559    -0.35100
C2630       C  0.51672749  0.62271940  0.50425294     0.15300
O2631       O  0.54346969  0.60614031  0.50620818    -0.27100
C2632       C  0.54451139  0.61879253  0.49262842     0.05100
C2633       C  0.52823215  0.62938168  0.49052823    -0.32000
O2634       O  0.48056907  0.62924051  0.53941875    -0.23800
C2635       C  0.48213884  0.61911349  0.55501925    -0.03800
C2636       C  0.49573859  0.60523834  0.55398046    -0.18200
H2637       H  0.52803674  0.58976462  0.53703383     0.19800
H2638       H  0.49303189  0.64208996  0.50518922     0.18100
H2639       H  0.52598770  0.64145253  0.48158571     0.18100
H2640       H  0.50084352  0.59628091  0.56514421     0.13900
C2641       C  0.60340692  0.53113262  0.51435920     0.29400
C2642       C  0.59544314  0.52541373  0.53133523    -0.37000
C2643       C  0.60282362  0.50900986  0.53912534     0.15400
C2644       C  0.61678791  0.49857626  0.53057428     0.21200
C2645       C  0.62420866  0.50388231  0.51311578    -0.35100
C2646       C  0.61712913  0.52062149  0.50550880     0.15300
O2647       O  0.60132710  0.54783668  0.50688236    -0.27100
C2648       C  0.61373256  0.54809062  0.49300174     0.05100
C2649       C  0.62380153  0.53144639  0.49122392    -0.32000
O2650       O  0.62387664  0.48572461  0.54185815    -0.23800
C2651       C  0.61437384  0.48811838  0.55774655    -0.03800
C2652       C  0.60095865  0.50220784  0.55678381    -0.18200
H2653       H  0.58557264  0.53417812  0.53889005     0.19800
H2654       H  0.63594591  0.49651770  0.50684640     0.18100
H2655       H  0.63571526  0.52861002  0.48221837     0.18100
H2656       H  0.59242796  0.50784164  0.56803981     0.13900
C2657       C  0.62552954  0.51737449  0.39851738     0.29400
C2658       C  0.63160234  0.49894327  0.40243376    -0.37000
C2659       C  0.62019703  0.48445321  0.39577013     0.15400
C2660       C  0.60397574  0.48806992  0.38594721     0.21200
C2661       C  0.59799125  0.50646995  0.38190638    -0.35100
C2662       C  0.60941256  0.52093515  0.38850023     0.15300
O2663       O  0.63329274  0.53285345  0.40465954    -0.27100
C2664       C  0.62222553  0.54661513  0.39838086     0.05100
C2665       C  0.60711985  0.54005089  0.38808175    -0.32000
O2666       O  0.59512265  0.47264890  0.38142472    -0.23800
C2667       C  0.60567759  0.45879636  0.38832624    -0.03800
C2668       C  0.62158219  0.46527935  0.39746013    -0.18200
H2669       H  0.64411355  0.49613476  0.41051733     0.19800
H2670       H  0.58510057  0.50928950  0.37444352     0.18100
H2671       H  0.59551260  0.54801339  0.38237012     0.18100
H2672       H  0.63239901  0.45716767  0.40437675     0.13900
C2673       C  0.62984932  0.72839966  0.50614734     0.29400
C2674       C  0.62249577  0.74595141  0.51122550    -0.37000
C2675       C  0.62873028  0.75318841  0.52834989     0.15400
C2676       C  0.64156910  0.74387854  0.53949446     0.21200
C2677       C  0.64943659  0.72672223  0.53409190    -0.35100
C2678       C  0.64293553  0.71933884  0.51721338     0.15300
O2679       O  0.62342153  0.71756851  0.49271852    -0.27100
C2680       C  0.63244165  0.70143440  0.49534732     0.05100
C2681       C  0.64494819  0.70179592  0.51018017    -0.32000
O2682       O  0.64315951  0.75146273  0.55616886    -0.23800
C2683       C  0.63133057  0.76588008  0.55572959    -0.03800
C2684       C  0.62209273  0.76784012  0.53871239    -0.18200
H2685       H  0.61146210  0.75267085  0.50324755     0.19800
H2686       H  0.65867001  0.71887207  0.54324911     0.18100
H2687       H  0.65291277  0.69024985  0.51605243     0.18100
H2688       H  0.61084451  0.77744946  0.53520767     0.13900
C2689       C  0.37902633  0.23455465  0.14680443     0.29400
C2690       C  0.36827264  0.24772577  0.15680127    -0.37000
C2691       C  0.37222579  0.26670602  0.15319876     0.15400
C2692       C  0.38576091  0.27253886  0.14064443     0.21200
C2693       C  0.39644508  0.25937529  0.13061021    -0.35100
C2694       C  0.39252948  0.24042240  0.13423822     0.15300
O2695       O  0.37831403  0.21602284  0.14841799    -0.27100
C2696       C  0.39160214  0.21004659  0.13667805     0.05100
C2697       C  0.40077895  0.22465508  0.12755865    -0.32000
O2698       O  0.38771507  0.29102623  0.14024173    -0.23800
C2699       C  0.37520821  0.29708154  0.15274745    -0.03800
C2700       C  0.36522019  0.28252449  0.16111479    -0.18200
H2701       H  0.35784037  0.24350712  0.16698229     0.19800
H2702       H  0.40736520  0.26358235  0.12095306     0.18100
H2703       H  0.41227290  0.22376906  0.11765299     0.18100
H2704       H  0.35471854  0.28345490  0.17206461     0.13900
C2705       C  0.37426596  0.48864212  0.15246265     0.29400
C2706       C  0.37965201  0.50705476  0.15701541    -0.37000
C2707       C  0.36983121  0.52160153  0.14798764     0.15400
C2708       C  0.35575389  0.51805577  0.13533135     0.21200
C2709       C  0.35054208  0.49966167  0.13060385    -0.35100
C2710       C  0.36031165  0.48513169  0.13966114     0.15300
O2711       O  0.38078792  0.47315085  0.16014432    -0.27100
C2712       C  0.37105060  0.45940692  0.15218741     0.05100
C2713       C  0.35808801  0.46601533  0.13917884    -0.32000
O2714       O  0.34771531  0.53352321  0.12923343    -0.23800
C2715       C  0.35666886  0.54733411  0.13793278    -0.03800
C2716       C  0.37072231  0.54077487  0.14981490    -0.18200
H2717       H  0.39040088  0.50982003  0.16728826     0.19800
H2718       H  0.33927569  0.49690499  0.12090008     0.18100
H2719       H  0.34802933  0.45805895  0.13121070     0.18100
H2720       H  0.37977099  0.54881848  0.15884062     0.13900
C2721       C  0.36946854  0.48164216  0.25712834     0.29400
C2722       C  0.37707818  0.49870074  0.26296881    -0.37000
C2723       C  0.36968101  0.50611901  0.27961310     0.15400
C2724       C  0.35558082  0.49743207  0.28964215     0.21200
C2725       C  0.34746189  0.48083036  0.28339396    -0.35100
C2726       C  0.35509843  0.47324670  0.26701356     0.15300
O2727       O  0.37656008  0.47058856  0.24411826    -0.27100
C2728       C  0.36663966  0.45499972  0.24583511     0.05100
C2729       C  0.35298006  0.45590799  0.25966960    -0.32000
O2730       O  0.35322390  0.50465455  0.30641810    -0.23800
C2731       C  0.36581503  0.51821099  0.30711592    -0.03800
C2732       C  0.37626204  0.52003336  0.29074988    -0.18200
H2733       H  0.38908765  0.50481333  0.25602828     0.19800
H2734       H  0.33720896  0.47338558  0.29172071     0.18100
H2735       H  0.34404904  0.44477963  0.26474291     0.18100
H2736       H  0.38834398  0.52880604  0.28831060     0.13900
C2737       C  0.27362167  0.38343938  0.26036583     0.29400
C2738       C  0.25669040  0.37516699  0.26578045    -0.37000
C2739       C  0.24902498  0.38149315  0.28273217     0.15400
C2740       C  0.25741661  0.39515165  0.29346057     0.21200
C2741       C  0.27404066  0.40376034  0.28780393    -0.35100
C2742       C  0.28182522  0.39725454  0.27103868     0.15300
O2743       O  0.28460541  0.37763277  0.24670439    -0.27100
C2744       C  0.29998163  0.38778031  0.24876809     0.05100
C2745       C  0.29902028  0.40035845  0.26353073    -0.32000
O2746       O  0.24952183  0.39701137  0.30999612    -0.23800
C2747       C  0.23582921  0.38454510  0.30984459    -0.03800
C2748       C  0.23464418  0.37457789  0.29319180    -0.18200
H2749       H  0.25069372  0.36363796  0.25806889     0.19800
H2750       H  0.28116855  0.41375764  0.29660906     0.18100
H2751       H  0.30999154  0.40923256  0.26892306     0.18100
H2752       H  0.22572022  0.36281086  0.29001189     0.13900
C2753       C  0.39471434  0.26015488  0.29251585     0.29400
C2754       C  0.40210449  0.27733842  0.28688836    -0.37000
C2755       C  0.39543331  0.28444562  0.26991139     0.15400
C2756       C  0.38258108  0.27517090  0.25893111     0.21200
C2757       C  0.37575750  0.25751830  0.26420336    -0.35100
C2758       C  0.38220305  0.25051882  0.28143740     0.15300
O2759       O  0.39617685  0.25303266  0.30943944    -0.27100
C2760       C  0.38458120  0.23860350  0.30925003     0.05100
C2761       C  0.37572621  0.23608524  0.29211956    -0.32000
O2762       O  0.37597102  0.28584403  0.24529982    -0.23800
C2763       C  0.38475983  0.30203784  0.24770268    -0.03800
C2764       C  0.39715130  0.30187256  0.26262870    -0.18200
H2765       H  0.41103872  0.28544794  0.29598179     0.19800
H2766       H  0.36491240  0.25056499  0.25631780     0.18100
H2767       H  0.36457593  0.22645348  0.28879805     0.18100
H2768       H  0.40495269  0.31348247  0.26834270     0.13900
C2769       C  0.46842341  0.35913065  0.26701151     0.29400
C2770       C  0.47295502  0.35221262  0.28474249    -0.37000
C2771       C  0.48919263  0.35935377  0.29271855     0.15400
C2772       C  0.50058984  0.37209233  0.28368701     0.21200
C2773       C  0.49637490  0.37857936  0.26556488    -0.35100
C2774       C  0.47975276  0.37176801  0.25771891     0.15300
O2775       O  0.45206260  0.35721733  0.25902703    -0.27100
C2776       C  0.45274178  0.36869573  0.24443155     0.05100
C2777       C  0.46974913  0.37794052  0.24260347    -0.32000
O2778       O  0.51360432  0.37878685  0.29485277    -0.23800
C2779       C  0.51031453  0.37024063  0.31111801    -0.03800
C2780       C  0.49540185  0.35794572  0.31058492    -0.18200
H2781       H  0.46350927  0.34326350  0.29251653     0.19800
H2782       H  0.50454284  0.38939642  0.25880293     0.18100
H2783       H  0.47326277  0.38919787  0.23305632     0.18100
H2784       H  0.48921278  0.35015966  0.32205437     0.13900
C2785       C  0.22740362  0.50032115  0.14030979     0.29400
C2786       C  0.24500384  0.50588510  0.13347524    -0.37000
C2787       C  0.25119898  0.52356001  0.13935546     0.15400
C2788       C  0.24091617  0.53471543  0.15145320     0.21200
C2789       C  0.22386140  0.52878715  0.15895736    -0.35100
C2790       C  0.21751278  0.51141530  0.15278344     0.15300
O2791       O  0.21716330  0.48650423  0.13365794    -0.27100
C2792       C  0.20062757  0.48893658  0.14200358     0.05100
C2793       C  0.20018192  0.50398208  0.15425497    -0.32000
O2794       O  0.24746919  0.55182033  0.15262660    -0.23800
C2795       C  0.26222165  0.55171113  0.14127942    -0.03800
C2796       C  0.26543818  0.53445263  0.13278499    -0.18200
H2797       H  0.25243510  0.49788378  0.12290833     0.19800
H2798       H  0.21524255  0.53792127  0.16752963     0.18100
H2799       H  0.18817452  0.50985526  0.16152136     0.18100
H2800       H  0.27562568  0.53101721  0.12203808     0.13900
C2801       C  0.23494990  0.39531200  0.13480147     0.29400
C2802       C  0.25350204  0.39923583  0.12931651    -0.37000
C2803       C  0.26772969  0.39033894  0.13964352     0.15400
C2804       C  0.26381365  0.37841540  0.15434892     0.21200
C2805       C  0.24525536  0.37431547  0.15969064    -0.35100
C2806       C  0.23101996  0.38321211  0.14935576     0.15300
O2807       O  0.21968138  0.40283050  0.12762333    -0.27100
C2808       C  0.20564143  0.39541578  0.13749120     0.05100
C2809       C  0.21184585  0.38301656  0.15126885    -0.32000
O2810       O  0.27910606  0.37249356  0.16282667    -0.23800
C2811       C  0.29311257  0.38062644  0.15350954    -0.03800
C2812       C  0.28689485  0.39183827  0.13877122    -0.18200
H2813       H  0.25660942  0.40893246  0.11806341     0.19800
H2814       H  0.24216037  0.36517506  0.17140493     0.18100
H2815       H  0.20356805  0.37552883  0.16153562     0.18100
H2816       H  0.29516324  0.40036341  0.12934788     0.13900
C2817       C  0.13775238  0.38506239  0.23955991     0.29400
C2818       C  0.14871656  0.37562809  0.25297910    -0.37000
C2819       C  0.14436889  0.37923567  0.27194463     0.15400
C2820       C  0.13021474  0.39123031  0.27759460     0.21200
C2821       C  0.11921899  0.40062350  0.26417655    -0.35100
C2822       C  0.12359091  0.39705050  0.24520677     0.15300
O2823       O  0.13986921  0.38454018  0.22100482    -0.27100
C2824       C  0.12682295  0.39641868  0.21471267     0.05100
C2825       C  0.11636693  0.40446539  0.22922311    -0.32000
O2826       O  0.12900401  0.39282485  0.29616537    -0.23800
C2827       C  0.14264128  0.38164038  0.30245354    -0.03800
C2828       C  0.15252889  0.37292200  0.28793179    -0.18200
H2829       H  0.16009347  0.36637566  0.24895244     0.19800
H2830       H  0.10822027  0.41031885  0.26820864     0.18100
H2831       H  0.10534127  0.41488871  0.22814619     0.18100
H2832       H  0.16434575  0.36340634  0.28901986     0.13900
C2833       C  0.11505028  0.52578149  0.00502295     0.29400
C2834       C  0.12293834  0.50841068  0.00997259    -0.37000
C2835       C  0.11711573  0.50097043  0.02722576     0.15400
C2836       C  0.10413883  0.50992393  0.03855034     0.21200
C2837       C  0.09579788  0.52689487  0.03330707    -0.35100
C2838       C  0.10191366  0.53450537  0.01633934     0.15300
O2839       O  0.12102127  0.53681216  0.99148281    -0.27100
C2840       C  0.11166866  0.55272400  0.99429469     0.05100
C2841       C  0.09941348  0.55204919  0.00939006    -0.32000
O2842       O  0.10300875  0.50238953  0.05529570    -0.23800
C2843       C  0.11529445  0.48838564  0.05478470    -0.03800
C2844       C  0.12437528  0.48658867  0.03760285    -0.18200
H2845       H  0.13406923  0.50203151  0.00180793     0.19800
H2846       H  0.08652622  0.53449589  0.04266002     0.18100
H2847       H  0.09133542  0.56340671  0.01547044     0.18100
H2848       H  0.13595555  0.47740004  0.03401700     0.13900
C2849       C  0.00416528  0.53281769  0.11321743     0.29400
C2850       C  0.02116633  0.52720525  0.10520595    -0.37000
C2851       C  0.02906843  0.51080386  0.11244162     0.15400
C2852       C  0.02067274  0.50034313  0.12640713     0.21200
C2853       C  0.00327813  0.50566444  0.13404763    -0.35100
C2854       C  0.99547967  0.52234056  0.12700284     0.15300
O2855       O  0.99635348  0.54933694  0.11092025    -0.27100
C2856       C  0.98241949  0.54953234  0.12325266     0.05100
C2857       C  0.98093431  0.53301482  0.13351217    -0.32000
O2858       O  0.03188082  0.48712121  0.13294668    -0.23800
C2859       C  0.04755344  0.48929094  0.12305127    -0.03800
C2860       C  0.04653915  0.50366611  0.10999547    -0.18200
H2861       H  0.02852647  0.53591427  0.09520005     0.19800
H2862       H  0.99706222  0.49820896  0.14571450     0.18100
H2863       H  0.97190985  0.53018796  0.14539693     0.18100
H2864       H  0.05762199  0.50909451  0.10116741     0.13900
C2865       C  0.23356785  0.36547387  0.63628676     0.29400
C2866       C  0.25184315  0.36039179  0.64189634    -0.37000
C2867       C  0.26665188  0.36875799  0.63199770     0.15400
C2868       C  0.26346879  0.38133054  0.61765862     0.21200
C2869       C  0.24519643  0.38661452  0.61223094    -0.35100
C2870       C  0.23038827  0.37818089  0.62206325     0.15300
O2871       O  0.21794379  0.35796033  0.64246347    -0.27100
C2872       C  0.20440551  0.36589768  0.63225281     0.05100
C2873       C  0.21129640  0.37880664  0.61932918    -0.32000
O2874       O  0.27911108  0.38658641  0.60945382    -0.23800
C2875       C  0.29267710  0.37741250  0.61854913    -0.03800
C2876       C  0.28576575  0.36607419  0.63288323    -0.18200
H2877       H  0.25430500  0.35004988  0.65274037     0.19800
H2878       H  0.24272675  0.39612069  0.60065005     0.18100
H2879       H  0.20361954  0.38643454  0.60868230     0.18100
H2880       H  0.29351707  0.35676474  0.64204378     0.13900
C2881       C  0.22246000  0.25165332  0.60916043     0.29400
C2882       C  0.22812735  0.23417907  0.60241742    -0.37000
C2883       C  0.24397418  0.22641952  0.61085050     0.15400
C2884       C  0.25402573  0.23543976  0.62463493     0.21200
C2885       C  0.24890525  0.25343697  0.63071310    -0.35100
C2886       C  0.23265613  0.26103176  0.62261447     0.15300
O2887       O  0.20571826  0.25891547  0.60669121    -0.27100
C2888       C  0.20511662  0.27314020  0.61858307     0.05100
C2889       C  0.22161606  0.27547653  0.62857041    -0.32000
O2890       O  0.26614878  0.22417910  0.63295224    -0.23800
C2891       C  0.26363985  0.20787936  0.62436735    -0.03800
C2892       C  0.25022692  0.20850660  0.61040652    -0.18200
H2893       H  0.21950369  0.22621856  0.59289867     0.19800
H2894       H  0.25583250  0.26010602  0.64238217     0.18100
H2895       H  0.22401982  0.28463841  0.64038085     0.18100
H2896       H  0.24464895  0.19698154  0.60236477     0.13900
C2897       C  0.11790480  0.36788672  0.52421150     0.29400
C2898       C  0.11207878  0.36344264  0.50588125    -0.37000
C2899       C  0.12295278  0.37074812  0.49116427     0.15400
C2900       C  0.13837937  0.38174182  0.49450089     0.21200
C2901       C  0.14403919  0.38639540  0.51277928    -0.35100
C2902       C  0.13322988  0.37905340  0.52746663     0.15300
O2903       O  0.11104995  0.36082508  0.53982368    -0.27100
C2904       C  0.12194601  0.36757365  0.55335534     0.05100
C2905       C  0.13595059  0.37922391  0.54651961    -0.32000
O2906       O  0.14722457  0.38623923  0.47898431    -0.23800
C2907       C  0.13748157  0.37815645  0.46533461    -0.03800
C2908       C  0.12206851  0.36828540  0.47203746    -0.18200
H2909       H  0.10035970  0.35426687  0.50332422     0.19800
H2910       H  0.15646639  0.39458911  0.51535250     0.18100
H2911       H  0.14737455  0.38545537  0.55418849     0.18100
H2912       H  0.11211419  0.36012588  0.46414635     0.13900
C2913       C  0.03784057  0.23911892  0.64896286     0.29400
C2914       C  0.03344215  0.22111849  0.65534671    -0.37000
C2915       C  0.01609486  0.21414954  0.64969995     0.15400
C2916       C  0.00367418  0.22436241  0.63887698     0.21200
C2917       C  0.00779376  0.24268489  0.63307519    -0.35100
C2918       C  0.02537842  0.24952189  0.63836095     0.15300
O2919       O  0.05451145  0.24677418  0.64972649    -0.27100
C2920       C  0.05278543  0.26228135  0.63954995     0.05100
C2921       C  0.03489297  0.26492881  0.63233128    -0.32000
O2922       O  0.98950557  0.21418571  0.63302205    -0.23800
C2923       C  0.99297042  0.19730054  0.64016268    -0.03800
C2924       C  0.00921234  0.19648652  0.65079684    -0.18200
H2925       H  0.04352481  0.21253207  0.66279600     0.19800
H2926       H  0.99862411  0.25043721  0.62377824     0.18100
H2927       H  0.03018038  0.27558124  0.62257742     0.18100
H2928       H  0.01571964  0.18431692  0.65717308     0.13900
C2929       C  0.60887301  0.37240638  0.24096963     0.29400
C2930       C  0.59690856  0.38057396  0.25435135    -0.37000
C2931       C  0.60132895  0.37706787  0.27327623     0.15400
C2932       C  0.61644558  0.36632677  0.27892483     0.21200
C2933       C  0.62846663  0.35824732  0.26554855    -0.35100
C2934       C  0.62405279  0.36175750  0.24662537     0.15300
O2935       O  0.60679746  0.37275447  0.22244139    -0.27100
C2936       C  0.62095128  0.36218803  0.21622526     0.05100
C2937       C  0.63206606  0.35516529  0.23070571    -0.32000
O2938       O  0.61760069  0.36463516  0.29746411    -0.23800
C2939       C  0.60294930  0.37448038  0.30369612    -0.03800
C2940       C  0.59246066  0.38243018  0.28921170    -0.18200
H2941       H  0.58475639  0.38876080  0.25032808     0.19800
H2942       H  0.64024991  0.34953267  0.26956669     0.18100
H2943       H  0.64390467  0.34566698  0.22966435     0.18100
H2944       H  0.57990631  0.39095201  0.29029397     0.13900
C2945       C  0.50940580  0.21765117  0.15120579     0.29400
C2946       C  0.52666983  0.22296624  0.15864291    -0.37000
C2947       C  0.53356340  0.24022045  0.15253320     0.15400
C2948       C  0.52407610  0.25165188  0.14007959     0.21200
C2949       C  0.50647729  0.24656504  0.13304773    -0.35100
C2950       C  0.49963265  0.22914543  0.13902858     0.15300
O2951       O  0.50184252  0.20099174  0.15291911    -0.27100
C2952       C  0.48696094  0.20178711  0.14182423     0.05100
C2953       C  0.48470153  0.21902330  0.13296655    -0.32000
O2954       O  0.53433264  0.26589270  0.13433644    -0.23800
C2955       C  0.55049845  0.26345142  0.14327434    -0.03800
C2956       C  0.55072686  0.24784849  0.15490563    -0.18200
H2957       H  0.53479161  0.21368305  0.16751622     0.19800
H2958       H  0.49926001  0.25496208  0.12265316     0.18100
H2959       H  0.47453519  0.22291597  0.12240615     0.18100
H2960       H  0.56239679  0.24211342  0.16274677     0.13900
C2961       C  0.51751309  0.37263000  0.14471241     0.29400
C2962       C  0.50398783  0.38494230  0.15216654    -0.37000
C2963       C  0.48510735  0.38031696  0.14888010     0.15400
C2964       C  0.47964851  0.36469480  0.13897525     0.21200
C2965       C  0.49316133  0.35249348  0.13137842    -0.35100
C2966       C  0.51202290  0.35709140  0.13470539     0.15300
O2967       O  0.53603796  0.37378038  0.14651954    -0.27100
C2968       C  0.54242413  0.35868593  0.13749669     0.05100
C2969       C  0.52802513  0.34794283  0.12996477    -0.32000
O2970       O  0.46118417  0.36230075  0.13901391    -0.23800
C2971       C  0.45476800  0.37669097  0.14906154    -0.03800
C2972       C  0.46907648  0.38830027  0.15536468    -0.18200
H2973       H  0.50786208  0.39702362  0.16038926     0.19800
H2974       H  0.48927239  0.33995898  0.12387130     0.18100
H2975       H  0.52919906  0.33500499  0.12214882     0.18100
H2976       H  0.46788367  0.40032088  0.16452776     0.13900
C2977       C  0.62939718  0.25432638  0.03243891     0.29400
C2978       C  0.62101380  0.24900270  0.01548215    -0.37000
C2979       C  0.62687061  0.23171310  0.00808812     0.15400
C2980       C  0.64025985  0.22065158  0.01671336     0.21200
C2981       C  0.64908567  0.22626782  0.03322637    -0.35100
C2982       C  0.64301460  0.24331017  0.04075828     0.15300
O2983       O  0.62379119  0.26812513  0.04341890    -0.27100
C2984       C  0.63391919  0.26579814  0.05889068     0.05100
C2985       C  0.64626223  0.25074716  0.05792816    -0.32000
O2986       O  0.64168988  0.20394471  0.00915615    -0.23800
C2987       C  0.62921356  0.20424311  0.99540524    -0.03800
C2988       C  0.61966504  0.22122221  0.99387217    -0.18200
H2989       H  0.60966148  0.25700780  0.00933057     0.19800
H2990       H  0.65886782  0.21722025  0.04053256     0.18100
H2991       H  0.65502275  0.24507402  0.06895280     0.18100
H2992       H  0.60804226  0.22468587  0.98476858     0.13900
C2993       C  0.22583412  0.12242737  0.76224645     0.29400
C2994       C  0.24311958  0.13003169  0.75695340    -0.37000
C2995       C  0.25063925  0.12340663  0.74003848     0.15400
C2996       C  0.24182055  0.11001750  0.72929357     0.21200
C2997       C  0.22499404  0.10190389  0.73495478    -0.35100
C2998       C  0.21733156  0.10877152  0.75159416     0.15300
O2999       O  0.21467631  0.12901655  0.77543748    -0.27100
C3000       C  0.19895414  0.11947042  0.77304831     0.05100
C3001       C  0.19984875  0.10656801  0.75860335    -0.32000
O3002       O  0.24913505  0.10847227  0.71248186    -0.23800
C3003       C  0.26286420  0.12086903  0.71244430    -0.03800
C3004       C  0.26475200  0.13038809  0.72928251    -0.18200
H3005       H  0.24933137  0.14154777  0.76451097     0.19800
H3006       H  0.21746358  0.09230315  0.72604248     0.18100
H3007       H  0.18864524  0.09815724  0.75294656     0.18100
H3008       H  0.27363324  0.14223449  0.73228520     0.13900
C3009       C  0.12835310  0.02643435  0.75864027     0.29400
C3010       C  0.12212553  0.00838999  0.75419198    -0.37000
C3011       C  0.12911350  0.00080639  0.73743463     0.15400
C3012       C  0.14154833  0.01031386  0.72603790     0.21200
C3013       C  0.14817114  0.02804920  0.73074219    -0.35100
C3014       C  0.14097031  0.03570128  0.74726146     0.15300
O3015       O  0.12168695  0.03721944  0.77210860    -0.27100
C3016       C  0.13017243  0.05349040  0.76919358     0.05100
C3017       C  0.14237199  0.05333715  0.75402632    -0.32000
O3018       O  0.14373666  0.00232904  0.70963714    -0.23800
C3019       C  0.13266917  0.98750266  0.71046460    -0.03800
C3020       C  0.12342262  0.98557921  0.72752311    -0.18200
H3021       H  0.11148467  0.00139940  0.76242060     0.19800
H3022       H  0.15708161  0.03597321  0.72136770     0.18100
H3023       H  0.15013157  0.06491813  0.74809305     0.18100
H3024       H  0.11246066  0.97580537  0.73116264     0.13900
C3025       C  0.12071109  0.25368564  0.73229745     0.29400
C3026       C  0.12754642  0.24859927  0.74999869    -0.37000
C3027       C  0.12006178  0.23222801  0.75774815     0.15400
C3028       C  0.10659979  0.22176802  0.74873842     0.21200
C3029       C  0.09935833  0.22715695  0.73134664    -0.35100
C3030       C  0.10707997  0.24329078  0.72347351     0.15300
O3031       O  0.12775309  0.26670599  0.72130573    -0.27100
C3032       C  0.11858390  0.26447825  0.70530198     0.05100
C3033       C  0.10544960  0.25026096  0.70584689    -0.32000
O3034       O  0.10381957  0.20550678  0.75684519    -0.23800
C3035       C  0.11549376  0.20556908  0.77127729    -0.03800
C3036       C  0.12582241  0.22190494  0.77275359    -0.18200
H3037       H  0.13895288  0.25601848  0.75655320     0.19800
H3038       H  0.08957204  0.21849553  0.72377432     0.18100
H3039       H  0.09699559  0.24494947  0.69448673     0.18100
H3040       H  0.13727787  0.22481938  0.78219168     0.13900
C3041       C  0.00537266  0.14493790  0.72439723     0.29400
C3042       C  0.02188808  0.15340225  0.73032773    -0.37000
C3043       C  0.02864526  0.14756429  0.74773546     0.15400
C3044       C  0.01959963  0.13452910  0.75882335     0.21200
C3045       C  0.00255296  0.12665894  0.75323880    -0.35100
C3046       C  0.99594314  0.13225664  0.73558968     0.15300
O3047       O  0.99888960  0.14553389  0.70720887    -0.27100
C3048       C  0.98506958  0.13323382  0.70737728     0.05100
C3049       C  0.98229343  0.12475152  0.72470505    -0.32000
O3050       O  0.03010875  0.12866849  0.77285788    -0.23800
C3051       C  0.04596563  0.13809452  0.77061156    -0.03800
C3052       C  0.04574759  0.15019711  0.75539143    -0.18200
H3053       H  0.02989380  0.16247639  0.72118681     0.19800
H3054       H  0.99588961  0.11563971  0.76123424     0.18100
H3055       H  0.97304824  0.11327076  0.72812223     0.18100
H3056       H  0.05723022  0.15826914  0.74968929     0.13900
C3057       C  0.75198246  0.73341599  0.62295851     0.29400
C3058       C  0.74629545  0.75105969  0.62960470    -0.37000
C3059       C  0.72871876  0.75743651  0.62343467     0.15400
C3060       C  0.71773023  0.74726884  0.61126806     0.21200
C3061       C  0.72383419  0.73019619  0.60387677    -0.35100
C3062       C  0.74113995  0.72368240  0.61030796     0.15300
O3063       O  0.76548770  0.72292494  0.63012574    -0.27100
C3064       C  0.76312664  0.70640357  0.62191526     0.05100
C3065       C  0.74848114  0.70621324  0.60921193    -0.32000
O3066       O  0.70052442  0.75379806  0.61015376    -0.23800
C3067       C  0.70044840  0.76841597  0.62158931    -0.03800
C3068       C  0.71765521  0.77159356  0.63004201    -0.18200
H3069       H  0.75404288  0.75832967  0.64035298     0.19800
H3070       H  0.71480563  0.72162419  0.59531764     0.18100
H3071       H  0.74262480  0.69425916  0.60204300     0.18100
H3072       H  0.72089305  0.78154901  0.64096632     0.13900
C3073       C  0.71591700  0.51161495  0.65417298     0.29400
C3074       C  0.72103299  0.52888477  0.66163531    -0.37000
C3075       C  0.73786133  0.53622388  0.65501967     0.15400
C3076       C  0.74915308  0.52706044  0.64216639     0.21200
C3077       C  0.74433216  0.50939830  0.63516153    -0.35100
C3078       C  0.72724667  0.50216515  0.64155227     0.15300
O3079       O  0.69927641  0.50412090  0.65581162    -0.27100
C3080       C  0.69989437  0.48964416  0.64422997     0.05100
C3081       C  0.71701595  0.48748063  0.63513344    -0.32000
O3082       O  0.76265843  0.53782392  0.63573855    -0.23800
C3083       C  0.75983732  0.55396113  0.64459247    -0.03800
C3084       C  0.74477073  0.55372558  0.65688180    -0.18200
H3085       H  0.71171049  0.53682188  0.67065426     0.19800
H3086       H  0.75248023  0.50256823  0.62429986     0.18100
H3087       H  0.72061159  0.47784218  0.62397476     0.18100
H3088       H  0.73877085  0.56529161  0.66470209     0.13900
C3089       C  0.75298714  0.62057645  0.73849716     0.29400
C3090       C  0.74746215  0.62795133  0.75585263    -0.37000
C3091       C  0.73069944  0.62097120  0.76322855     0.15400
C3092       C  0.72028522  0.60745870  0.75421881     0.21200
C3093       C  0.72620358  0.59953770  0.73732568    -0.35100
C3094       C  0.74271787  0.60675109  0.72980372     0.15300
O3095       O  0.76582701  0.62773722  0.72735579    -0.27100
C3096       C  0.76360847  0.61841717  0.71143492     0.05100
C3097       C  0.74967601  0.60501367  0.71221579    -0.32000
O3098       O  0.70348241  0.60561969  0.76144048    -0.23800
C3099       C  0.70316678  0.61793309  0.77530714    -0.03800
C3100       C  0.71976860  0.62771019  0.77735406    -0.18200
H3101       H  0.75467056  0.63961954  0.76218497     0.19800
H3102       H  0.71751689  0.58987429  0.72962195     0.18100
H3103       H  0.74410884  0.59673866  0.70084087     0.18100
H3104       H  0.72248442  0.63957310  0.78634896     0.13900
C3105       C  0.72428729  0.63488941  0.50734740     0.29400
C3106       C  0.74205753  0.62844110  0.51282419    -0.37000
C3107       C  0.74835862  0.63478669  0.53028532     0.15400
C3108       C  0.73797642  0.64689308  0.54135187     0.21200
C3109       C  0.72066040  0.65391410  0.53554609    -0.35100
C3110       C  0.71424652  0.64733435  0.51834935     0.15300
O3111       O  0.71412793  0.62800554  0.49361058    -0.27100
C3112       C  0.69750865  0.63617412  0.49601211     0.05100
C3113       C  0.69687051  0.64852097  0.51095401    -0.32000
O3114       O  0.74479665  0.64856561  0.55831485    -0.23800
C3115       C  0.75979200  0.63753264  0.55816202    -0.03800
C3116       C  0.76292326  0.62874471  0.54105427    -0.18200
H3117       H  0.74961554  0.61790170  0.50490152     0.19800
H3118       H  0.71199559  0.66249777  0.54462590     0.18100
H3119       H  0.68478410  0.65574772  0.51671883     0.18100
H3120       H  0.77326188  0.61810373  0.53769789     0.13900
C3121       C  0.73098103  0.26121883  0.12455770     0.29400
C3122       C  0.74886745  0.25594911  0.13097052    -0.37000
C3123       C  0.75576839  0.23866375  0.12442397     0.15400
C3124       C  0.74591089  0.22770269  0.11197362     0.21200
C3125       C  0.72869555  0.23350211  0.10470929    -0.35100
C3126       C  0.72159007  0.25036764  0.11166094     0.15300
O3127       O  0.71995546  0.27404293  0.13225553    -0.27100
C3128       C  0.70344003  0.27119171  0.12415476     0.05100
C3129       C  0.70378696  0.25692707  0.11102075    -0.32000
O3130       O  0.75253575  0.21054730  0.11086559    -0.23800
C3131       C  0.76687566  0.21037884  0.12262325    -0.03800
C3132       C  0.76986902  0.22757365  0.13122021    -0.18200
H3133       H  0.75584783  0.26360166  0.14197760     0.19800
H3134       H  0.72034187  0.22435705  0.09605600     0.18100
H3135       H  0.69203368  0.25076283  0.10378530     0.18100
H3136       H  0.77942634  0.23068760  0.14252462     0.13900
C3137       C  0.72598019  0.13632763  0.00541898     0.29400
C3138       C  0.74332657  0.12910640  0.01136859    -0.37000
C3139       C  0.74999642  0.13594910  0.02852518     0.15400
C3140       C  0.74031135  0.14911542  0.03897014     0.21200
C3141       C  0.72335939  0.15677302  0.03273353    -0.35100
C3142       C  0.71661514  0.14979838  0.01576287     0.15300
O3143       O  0.71564856  0.12968163  0.99165337    -0.27100
C3144       C  0.69954300  0.13902996  0.99331750     0.05100
C3145       C  0.69947381  0.15188691  0.00787897    -0.32000
O3146       O  0.74748510  0.15148377  0.05575192    -0.23800
C3147       C  0.76205441  0.13984393  0.05607442    -0.03800
C3148       C  0.76448150  0.12994653  0.03945654    -0.18200
H3149       H  0.75037341  0.11788910  0.00392623     0.19800
H3150       H  0.71523961  0.16637831  0.04127186     0.18100
H3151       H  0.68781808  0.16018848  0.01304810     0.18100
H3152       H  0.77437359  0.11876502  0.03654773     0.13900
C3153       C  0.73693264  0.04173706  0.15125100     0.29400
C3154       C  0.71909613  0.03681761  0.15763445    -0.37000
C3155       C  0.71232230  0.01966312  0.15128116     0.15400
C3156       C  0.72251523  0.00788077  0.13972114     0.21200
C3157       C  0.74070260  0.01251143  0.13387542    -0.35100
C3158       C  0.74737263  0.02991258  0.13994483     0.15300
O3159       O  0.74434239  0.05845945  0.15270698    -0.27100
C3160       C  0.75974187  0.05739993  0.14228853     0.05100
C3161       C  0.76256551  0.03990087  0.13420775    -0.32000
O3162       O  0.71239910  0.99387759  0.13334825    -0.23800
C3163       C  0.69560788  0.99684956  0.14094429    -0.03800
C3164       C  0.69479692  0.01255953  0.15233535    -0.18200
H3165       H  0.71045832  0.04642823  0.16564773     0.19800
H3166       H  0.74845697  0.00390261  0.12404164     0.18100
H3167       H  0.77314073  0.03581029  0.12407951     0.18100
H3168       H  0.68266361  0.01865305  0.15919688     0.13900
C3169       C  0.14229940  0.48928837  0.38369591     0.29400
C3170       C  0.14710660  0.50761758  0.38901244    -0.37000
C3171       C  0.13692577  0.52217517  0.38049513     0.15400
C3172       C  0.12299497  0.51874258  0.36763584     0.21200
C3173       C  0.11801725  0.50040016  0.36250101    -0.35100
C3174       C  0.12822620  0.48584211  0.37099923     0.15300
O3175       O  0.15057779  0.47380171  0.38938691    -0.27100
C3176       C  0.14173314  0.46012270  0.38038869     0.05100
C3177       C  0.12759664  0.46675149  0.36868342    -0.32000
O3178       O  0.11630238  0.53426897  0.36024203    -0.23800
C3179       C  0.12591529  0.54793896  0.36843299    -0.03800
C3180       C  0.13890592  0.54128302  0.38136742    -0.18200
H3181       H  0.15836974  0.51032578  0.39873443     0.19800
H3182       H  0.10730798  0.49771525  0.35216411     0.18100
H3183       H  0.11851962  0.45879154  0.35961149     0.18100
H3184       H  0.14903604  0.54919446  0.38929003     0.13900
C3185       C  0.23441173  0.62780096  0.36450680     0.29400
C3186       C  0.25270019  0.63330910  0.35948684    -0.37000
C3187       C  0.26743919  0.62356682  0.36822636     0.15400
C3188       C  0.26414033  0.60940947  0.38095885     0.21200
C3189       C  0.24589578  0.60399865  0.38605578    -0.35100
C3190       C  0.23118801  0.61374769  0.37737252     0.15300
O3191       O  0.21874771  0.63448581  0.35744082    -0.27100
C3192       C  0.20520448  0.62477315  0.36588996     0.05100
C3193       C  0.21209755  0.61161434  0.37855967    -0.32000
O3194       O  0.27970390  0.60166738  0.38700758    -0.23800
C3195       C  0.29334508  0.61088214  0.37822737    -0.03800
C3196       C  0.28659830  0.62481354  0.36627812    -0.18200
H3197       H  0.25522136  0.64421020  0.34923699     0.19800
H3198       H  0.24338123  0.59273201  0.39590277     0.18100
H3199       H  0.20432318  0.60157003  0.38682299     0.18100
H3200       H  0.29450431  0.63408325  0.35726079     0.13900
C3201       C  0.23912690  0.61064082  0.22622657     0.29400
C3202       C  0.22211512  0.60306301  0.23202992    -0.37000
C3203       C  0.21593975  0.60846298  0.24977870     0.15400
C3204       C  0.22586878  0.62039971  0.26123272     0.21200
C3205       C  0.24335416  0.62740035  0.25569549    -0.35100
C3206       C  0.24944583  0.62218649  0.23772779     0.15300
O3207       O  0.24582470  0.60979989  0.20911434    -0.27100
C3208       C  0.26069480  0.62079392  0.20960553     0.05100
C3209       C  0.26383162  0.62878646  0.22705648    -0.32000
O3210       O  0.21577737  0.62640808  0.27554619    -0.23800
C3211       C  0.19934605  0.61814364  0.27308242    -0.03800
C3212       C  0.19877282  0.60658886  0.25752280    -0.18200
H3213       H  0.21349692  0.59488992  0.22268821     0.19800
H3214       H  0.25083568  0.63751133  0.26405884     0.18100
H3215       H  0.27419463  0.63910119  0.23083628     0.18100
H3216       H  0.18674932  0.59963580  0.25156113     0.13900
C3217       C  0.14164281  0.53621524  0.24920776     0.29400
C3218       C  0.14950645  0.53072481  0.23210181    -0.37000
C3219       C  0.14356580  0.51351153  0.22511353     0.15400
C3220       C  0.13099277  0.50218851  0.23447982     0.21200
C3221       C  0.12368150  0.50735796  0.25205574    -0.35100
C3222       C  0.12934598  0.52485646  0.25889613     0.15300
O3223       O  0.14284075  0.55305099  0.25646052    -0.27100
C3224       C  0.13131142  0.55256234  0.27107164     0.05100
C3225       C  0.12263216  0.53531870  0.27347935    -0.32000
O3226       O  0.12495498  0.48836276  0.22388817    -0.23800
C3227       C  0.13375414  0.49100283  0.20762966    -0.03800
C3228       C  0.14569372  0.50624718  0.20768632    -0.18200
H3229       H  0.15832155  0.54001259  0.22399027     0.19800
H3230       H  0.11307518  0.49912491  0.25907377     0.18100
H3231       H  0.11177960  0.53163175  0.28343136     0.18100
H3232       H  0.15333554  0.51220054  0.19599217     0.13900
C3233       C  0.99795454  0.63195821  0.23414528     0.29400
C3234       C  0.00314403  0.62482869  0.25176715    -0.37000
C3235       C  0.02021272  0.63132565  0.25889922     0.15400
C3236       C  0.03117592  0.64410481  0.24937490     0.21200
C3237       C  0.02575349  0.65158110  0.23212790    -0.35100
C3238       C  0.00893987  0.64493179  0.22492795     0.15300
O3239       O  0.98424545  0.62576617  0.22351825    -0.27100
C3240       C  0.98667564  0.63489649  0.20741700     0.05100
C3241       C  0.00165261  0.64712085  0.20757193    -0.32000
O3242       O  0.04765796  0.64633648  0.25706737    -0.23800
C3243       C  0.04733380  0.63499450  0.27179211    -0.03800
C3244       C  0.03056307  0.62537560  0.27384376    -0.18200
H3245       H  0.99518027  0.61398746  0.25873362     0.19800
H3246       H  0.03475069  0.66084861  0.22419654     0.18100
H3247       H  0.00730004  0.65520839  0.19602981     0.18100
H3248       H  0.02719593  0.61444596  0.28381717     0.13900
C3249       C  0.10801614  0.72125307  0.24946896     0.29400
C3250       C  0.10062211  0.72657183  0.23217880    -0.37000
C3251       C  0.10759626  0.74314696  0.22465030     0.15400
C3252       C  0.12080063  0.75398703  0.23358777     0.21200
C3253       C  0.12786300  0.74890254  0.25121873    -0.35100
C3254       C  0.12102596  0.73209416  0.25869606     0.15300
O3255       O  0.10557214  0.70489648  0.25742940    -0.27100
C3256       C  0.11700483  0.70521131  0.27201168     0.05100
C3257       C  0.12688450  0.72183218  0.27372239    -0.32000
O3258       O  0.12719405  0.76748047  0.22274174    -0.23800
C3259       C  0.11793894  0.76506968  0.20680529    -0.03800
C3260       C  0.10546927  0.75030496  0.20723355    -0.18200
H3261       H  0.09117704  0.71765416  0.22447001     0.19800
H3262       H  0.13888407  0.75673165  0.25794924     0.18100
H3263       H  0.13799184  0.72508783  0.28345661     0.18100
H3264       H  0.09721674  0.74472671  0.19585056     0.13900
C3265       C  0.13261887  0.73244429  0.00399835     0.29400
C3266       C  0.12529773  0.75003458  0.00902349    -0.37000
C3267       C  0.13112567  0.75702502  0.02639988     0.15400
C3268       C  0.14359245  0.74744441  0.03775394     0.21200
C3269       C  0.15141032  0.73029870  0.03243628    -0.35100
C3270       C  0.14530039  0.72317324  0.01536067     0.15300
O3271       O  0.12644635  0.72172195  0.99035804    -0.27100
C3272       C  0.13527945  0.70550934  0.99318643     0.05100
C3273       C  0.14732648  0.70567630  0.00836011    -0.32000
O3274       O  0.14460782  0.75456423  0.05462030    -0.23800
C3275       C  0.13274419  0.76890776  0.05417903    -0.03800
C3276       C  0.12410146  0.77139782  0.03691831    -0.18200
H3277       H  0.11450422  0.75690554  0.00084605     0.19800
H3278       H  0.16021135  0.72221849  0.04181973     0.18100
H3279       H  0.15495552  0.69402271  0.01446084     0.18100
H3280       H  0.11284387  0.78098002  0.03336736     0.13900
C3281       C  0.21827582  0.74683439  0.11013612     0.29400
C3282       C  0.22413723  0.72940936  0.10338702    -0.37000
C3283       C  0.24068300  0.72229856  0.11107486     0.15400
C3284       C  0.25102137  0.73174412  0.12434291     0.21200
C3285       C  0.24551715  0.74957230  0.13058582    -0.35100
C3286       C  0.22876768  0.75662527  0.12303893     0.15300
O3287       O  0.20152669  0.75414147  0.10765736    -0.27100
C3288       C  0.20129786  0.76886669  0.11895631     0.05100
C3289       C  0.21796023  0.77135970  0.12862639    -0.32000
O3290       O  0.26428761  0.72114103  0.13176203    -0.23800
C3291       C  0.26228865  0.70482060  0.12306551    -0.03800
C3292       C  0.24800470  0.70481892  0.10995309    -0.18200
H3293       H  0.21549645  0.72119555  0.09410517     0.19800
H3294       H  0.25285504  0.75669118  0.14171997     0.18100
H3295       H  0.22077154  0.78114102  0.13982916     0.18100
H3296       H  0.24270706  0.69310469  0.10199526     0.13900
C3297       C  0.03230478  0.74329502  0.15143129     0.29400
C3298       C  0.02687616  0.72587415  0.15851018    -0.37000
C3299       C  0.00987376  0.71901029  0.15184154     0.15400
C3300       C  0.99871420  0.72876583  0.13934143     0.21200
C3301       C  0.00379154  0.74657449  0.13285026    -0.35100
C3302       C  0.02101240  0.75331470  0.13925734     0.15300
O3303       O  0.04912371  0.75050107  0.15296586    -0.27100
C3304       C  0.04857942  0.76537260  0.14177857     0.05100
C3305       C  0.03138192  0.76802985  0.13308722    -0.32000
O3306       O  0.98502188  0.71845791  0.13267390    -0.23800
C3307       C  0.98754927  0.70198305  0.14101663    -0.03800
C3308       C  0.00263031  0.70156684  0.15322458    -0.18200
H3309       H  0.03608062  0.71749371  0.16722018     0.19800
H3310       H  0.99572607  0.75389525  0.12227109     0.18100
H3311       H  0.02777785  0.77808256  0.12228323     0.18100
H3312       H  0.00838859  0.68965355  0.16070874     0.13900
C3313       C  0.62221782  0.23769762  0.36706160     0.29400
C3314       C  0.62666436  0.25601069  0.36133667    -0.37000
C3315       C  0.61757366  0.27057017  0.37094475     0.15400
C3316       C  0.60496788  0.26716962  0.38520878     0.21200
C3317       C  0.60064853  0.24881447  0.39108445    -0.35100
C3318       C  0.60975536  0.23421739  0.38143746     0.15300
O3319       O  0.62823557  0.22223879  0.35907948    -0.27100
C3320       C  0.61965299  0.20849290  0.36831504     0.05100
C3321       C  0.60800157  0.21505468  0.38260106    -0.32000
O3322       O  0.59744520  0.28272484  0.39170976    -0.23800
C3323       C  0.60537118  0.29635880  0.38166742    -0.03800
C3324       C  0.61809009  0.28964222  0.36845848    -0.18200
H3325       H  0.63620272  0.25867754  0.34982751     0.19800
H3326       H  0.59053166  0.24612808  0.40208231     0.18100
H3327       H  0.59897794  0.20704952  0.39178278     0.18100
H3328       H  0.62604477  0.29752168  0.35823017     0.13900
C3329       C  0.47825847  0.13210499  0.37158926     0.29400
C3330       C  0.49157723  0.12370760  0.35971535    -0.37000
C3331       C  0.51048543  0.12743547  0.36376854     0.15400
C3332       C  0.51616326  0.13850905  0.37851532     0.21200
C3333       C  0.50285683  0.14673470  0.39049628    -0.35100
C3334       C  0.48395641  0.14308391  0.38640012     0.15300
O3335       O  0.45975185  0.13190834  0.36955880    -0.27100
C3336       C  0.45360878  0.14292125  0.38334749     0.05100
C3337       C  0.46809543  0.15005066  0.39422467    -0.32000
O3338       O  0.53465092  0.14049283  0.37928597    -0.23800
C3339       C  0.54083064  0.13051007  0.36476296    -0.03800
C3340       C  0.52635966  0.12218647  0.35471403    -0.18200
H3341       H  0.48750933  0.11532486  0.34779918     0.19800
H3342       H  0.50690226  0.15577964  0.40192247     0.18100
H3343       H  0.46710874  0.15993646  0.40567928     0.18100
H3344       H  0.52740619  0.11352957  0.34230615     0.13900
C3345       C  0.61347712  0.23182489  0.26232951     0.29400
C3346       C  0.62058296  0.24944176  0.25736655    -0.37000
C3347       C  0.61486387  0.25651569  0.23992553     0.15400
C3348       C  0.60271849  0.24698522  0.22836504     0.21200
C3349       C  0.59501189  0.22981279  0.23366201    -0.35100
C3350       C  0.60100868  0.22260342  0.25086517     0.15300
O3351       O  0.61978032  0.22104459  0.27599269    -0.27100
C3352       C  0.61125608  0.20480208  0.27314293     0.05100
C3353       C  0.59922450  0.20504809  0.25790372    -0.32000
O3354       O  0.60199465  0.25415017  0.21141189    -0.23800
C3355       C  0.61369332  0.26849653  0.21206991    -0.03800
C3356       C  0.62189940  0.27090942  0.22952934    -0.18200
H3357       H  0.63121934  0.25626733  0.26564073     0.19800
H3358       H  0.58643758  0.22175601  0.22418091     0.18100
H3359       H  0.59182783  0.19339717  0.25174767     0.18100
H3360       H  0.63302012  0.28041220  0.23329038     0.13900
C3361       C  0.72568441  0.12447064  0.26029578     0.29400
C3362       C  0.74267183  0.13254020  0.25463859    -0.37000
C3363       C  0.74970111  0.12667797  0.23720843     0.15400
C3364       C  0.74068385  0.11362052  0.22625022     0.21200
C3365       C  0.72414553  0.10504932  0.23220824    -0.35100
C3366       C  0.71701838  0.11108231  0.24944969     0.15300
O3367       O  0.71495814  0.13029688  0.27423422    -0.27100
C3368       C  0.69931921  0.12050806  0.27218849     0.05100
C3369       C  0.69992339  0.10816682  0.25719566    -0.32000
O3370       O  0.74789548  0.11235176  0.20932856    -0.23800
C3371       C  0.76182508  0.12456930  0.20944730    -0.03800
C3372       C  0.76381947  0.13376587  0.22647057    -0.18200
H3373       H  0.74909965  0.14372997  0.26249497     0.19800
H3374       H  0.71651438  0.09554632  0.22327822     0.18100
H3375       H  0.68867050  0.09973268  0.25167516     0.18100
H3376       H  0.77310681  0.14520202  0.22980040     0.13900
C3377       C  0.51999708  0.13140819  0.26000466     0.29400
C3378       C  0.50271577  0.12381453  0.25477949    -0.37000
C3379       C  0.49520469  0.13055704  0.23791289     0.15400
C3380       C  0.50407669  0.14396193  0.22712175     0.21200
C3381       C  0.52098251  0.15191560  0.23260516    -0.35100
C3382       C  0.52856662  0.14502100  0.24924354     0.15300
O3383       O  0.53089382  0.12522753  0.27357848    -0.27100
C3384       C  0.54650742  0.13503323  0.27132953     0.05100
C3385       C  0.54580931  0.14762445  0.25654129    -0.32000
O3386       O  0.49640937  0.14606122  0.21058122    -0.23800
C3387       C  0.48237480  0.13401564  0.21075493    -0.03800
C3388       C  0.48069032  0.12411111  0.22745616    -0.18200
H3389       H  0.49633336  0.11245627  0.26252258     0.19800
H3390       H  0.52845939  0.16167134  0.22372431     0.18100
H3391       H  0.55694635  0.15630497  0.25105565     0.18100
H3392       H  0.47148106  0.11252465  0.23059063     0.13900
C3393       C  0.64153334  0.03560721  0.25005431     0.29400
C3394       C  0.64924971  0.02994551  0.23299053    -0.37000
C3395       C  0.64238094  0.01323862  0.22576809     0.15400
C3396       C  0.62905715  0.00255271  0.23487406     0.21200
C3397       C  0.62186291  0.00785536  0.25238755    -0.35100
C3398       C  0.62850550  0.02482630  0.25947506     0.15300
O3399       O  0.64338834  0.05230888  0.25737075    -0.27100
C3400       C  0.63158716  0.05220379  0.27173219     0.05100
C3401       C  0.62206367  0.03544424  0.27395138    -0.32000
O3402       O  0.62219760  0.98941037  0.22402336    -0.23800
C3403       C  0.63121283  0.99189908  0.20790042    -0.03800
C3404       C  0.64410848  0.00627903  0.20823375    -0.18200
H3405       H  0.65857963  0.03885965  0.22503673     0.19800
H3406       H  0.61062692  0.00024161  0.25912445     0.18100
H3407       H  0.61072349  0.03231615  0.28355029     0.18100
H3408       H  0.65208393  0.01201169  0.19665183     0.13900
C3409       C  0.13739067  0.26924912  0.38178096     0.29400
C3410       C  0.14302403  0.25098245  0.37679472    -0.37000
C3411       C  0.13359882  0.23626218  0.38572903     0.15400
C3412       C  0.11956115  0.23949543  0.39864919     0.21200
C3413       C  0.11378694  0.25779573  0.40351498    -0.35100
C3414       C  0.12327256  0.27254395  0.39460279     0.15300
O3415       O  0.14539441  0.28479047  0.37614684    -0.27100
C3416       C  0.13643641  0.29841679  0.38533382     0.05100
C3417       C  0.12230636  0.29167467  0.39701739    -0.32000
O3418       O  0.11344414  0.22386274  0.40621466    -0.23800
C3419       C  0.12352547  0.21030934  0.39806775    -0.03800
C3420       C  0.13634232  0.21718328  0.38506575    -0.18200
H3421       H  0.15443291  0.24846240  0.36707754     0.19800
H3422       H  0.10307614  0.26032359  0.41399543     0.18100
H3423       H  0.11345518  0.29950164  0.40657676     0.18100
H3424       H  0.14668210  0.20944035  0.37705056     0.13900
C3425       C  0.26248526  0.14836437  0.38565589     0.29400
C3426       C  0.24415161  0.15285711  0.37985491    -0.37000
C3427       C  0.22966617  0.14250037  0.38814511     0.15400
C3428       C  0.23316185  0.12877670  0.40132273     0.21200
C3429       C  0.25150341  0.12419355  0.40703278    -0.35100
C3430       C  0.26599283  0.13448580  0.39866654     0.15300
O3431       O  0.27792826  0.15657948  0.37994553    -0.27100
C3432       C  0.29164348  0.14784144  0.38921047     0.05100
C3433       C  0.28506979  0.13390431  0.40116427    -0.32000
O3434       O  0.21763982  0.12178812  0.40831441    -0.23800
C3435       C  0.20390178  0.13099949  0.39954491    -0.03800
C3436       C  0.21052649  0.14401641  0.38662628    -0.18200
H3437       H  0.24137914  0.16390829  0.36981446     0.19800
H3438       H  0.25423016  0.11359670  0.41756445     0.18100
H3439       H  0.29306405  0.12491411  0.41043327     0.18100
H3440       H  0.20252622  0.15389817  0.37831449     0.13900
C3441       C  0.14459409  0.25026224  0.53431025     0.29400
C3442       C  0.15265334  0.23361523  0.52774584    -0.37000
C3443       C  0.14487102  0.22630092  0.51138780     0.15400
C3444       C  0.13030232  0.23489100  0.50190663     0.21200
C3445       C  0.12270349  0.25195339  0.50811693    -0.35100
C3446       C  0.13033099  0.25916952  0.52466551     0.15300
O3447       O  0.14735534  0.25751207  0.55098746    -0.27100
C3448       C  0.13487463  0.27134327  0.55199603     0.05100
C3449       C  0.12404451  0.27323661  0.53595456    -0.32000
O3450       O  0.12298035  0.22396119  0.48901289    -0.23800
C3451       C  0.13297760  0.20825547  0.49037061    -0.03800
C3452       C  0.14694429  0.20902176  0.50382158    -0.18200
H3453       H  0.16305864  0.22599845  0.53577666     0.19800
H3454       H  0.11058748  0.25826063  0.50148759     0.18100
H3455       H  0.11197684  0.28223593  0.53381872     0.18100
H3456       H  0.15590875  0.19774887  0.50870920     0.13900
C3457       C  0.24859037  0.13807836  0.53226646     0.29400
C3458       C  0.24364642  0.13154572  0.51440001    -0.37000
C3459       C  0.22662655  0.13835821  0.50718437     0.15400
C3460       C  0.21541340  0.15092091  0.51683343     0.21200
C3461       C  0.22069299  0.15797463  0.53429993    -0.35100
C3462       C  0.23748018  0.15095120  0.54160617     0.15300
O3463       O  0.26212527  0.13131067  0.54295711    -0.27100
C3464       C  0.25954589  0.13999907  0.55926198     0.05100
C3465       C  0.24456911  0.15248577  0.55914187    -0.32000
O3466       O  0.19872967  0.15287500  0.50929098    -0.23800
C3467       C  0.19920791  0.14154044  0.49456313    -0.03800
C3468       C  0.21631378  0.13237045  0.49231722    -0.18200
H3469       H  0.25166450  0.12072678  0.50735161     0.19800
H3470       H  0.21151891  0.16701692  0.54238133     0.18100
H3471       H  0.23879049  0.16034682  0.57078966     0.18100
H3472       H  0.21982820  0.12134850  0.48249805     0.13900
C3473       C  0.01911123  0.12121147  0.50332840     0.29400
C3474       C  0.00165457  0.12812601  0.50928277    -0.37000
C3475       C  0.99426744  0.11988173  0.52554329     0.15400
C3476       C  0.00332598  0.10558043  0.53504586     0.21200
C3477       C  0.02029609  0.09812079  0.52860605    -0.35100
C3478       C  0.02787470  0.10664946  0.51269197     0.15300
O3479       O  0.03020170  0.12922524  0.49091264    -0.27100
C3480       C  0.04618200  0.11971236  0.49252815     0.05100
C3481       C  0.04549061  0.10540815  0.50566253    -0.32000
O3482       O  0.99622246  0.10262630  0.55180388    -0.23800
C3483       C  0.98239678  0.11505632  0.55306311    -0.03800
C3484       C  0.98023211  0.12594013  0.53702353    -0.18200
H3485       H  0.99525697  0.14032706  0.50286245     0.19800
H3486       H  0.02804795  0.08779791  0.53662653     0.18100
H3487       H  0.05687043  0.09660290  0.51057307     0.18100
H3488       H  0.97130665  0.13810892  0.53513208     0.13900
C3489       C  0.10411302  0.03838688  0.51732041     0.29400
C3490       C  0.09654470  0.03260473  0.53445902    -0.37000
C3491       C  0.10330688  0.01556779  0.54144441     0.15400
C3492       C  0.11636918  0.00470227  0.53205729     0.21200
C3493       C  0.12344173  0.01017476  0.51452519    -0.35100
C3494       C  0.11690944  0.02742668  0.50766336     0.15300
O3495       O  0.10242451  0.05528509  0.51017733    -0.27100
C3496       C  0.11417103  0.05514953  0.49573450     0.05100
C3497       C  0.12335648  0.03812109  0.49323444    -0.32000
O3498       O  0.12272391  0.99074543  0.54243213    -0.23800
C3499       C  0.11359923  0.99278968  0.55858652    -0.03800
C3500       C  0.10124502  0.00787583  0.55871444    -0.18200
H3501       H  0.08730055  0.04155229  0.54256618     0.19800
H3502       H  0.13441869  0.00233159  0.50750470     0.18100
H3503       H  0.13460687  0.03484716  0.48354572     0.18100
H3504       H  0.09309954  0.01327096  0.57036332     0.13900
C3505       C  0.85965360  0.77268828  0.62592082     0.29400
C3506       C  0.85021071  0.75949061  0.63703042    -0.37000
C3507       C  0.85356726  0.74050952  0.63271495     0.15400
C3508       C  0.86532995  0.73463132  0.61846691     0.21200
C3509       C  0.87475764  0.74783041  0.60733965    -0.35100
C3510       C  0.87143005  0.76681260  0.61168311     0.15300
O3511       O  0.85845428  0.79125406  0.62720945    -0.27100
C3512       C  0.86969427  0.79728119  0.61355449     0.05100
C3513       C  0.87802760  0.78262483  0.60356254    -0.32000
O3514       O  0.86585711  0.71608563  0.61663271    -0.23800
C3515       C  0.85424090  0.71007838  0.62998099    -0.03800
C3516       C  0.84631535  0.72472263  0.64029907    -0.18200
H3517       H  0.84075264  0.76368945  0.64816098     0.19800
H3518       H  0.88390883  0.74363940  0.59595296     0.18100
H3519       H  0.88753114  0.78351870  0.59173817     0.18100
H3520       H  0.83616114  0.72385248  0.65157058     0.13900
C3521       C  0.76267127  0.87967771  0.61649965     0.29400
C3522       C  0.74434430  0.88509547  0.61144213    -0.61000
C3523       C  0.72967920  0.87550097  0.62033765     0.15400
C3524       C  0.73304286  0.86158433  0.63333764     0.21200
C3525       C  0.75136649  0.85632469  0.63856922    -0.35100
C3526       C  0.76603616  0.86589052  0.62963812     0.15300
O3527       O  0.77821785  0.88586046  0.60882366    -0.27100
C3528       C  0.79189046  0.87609916  0.61708759     0.05100
C3529       C  0.78517203  0.86344101  0.63035589    -0.32000
O3530       O  0.71751045  0.85358922  0.63907940    -0.23800
C3531       C  0.70385925  0.86241563  0.62980423    -0.03800
C3532       C  0.71056647  0.87635670  0.61790634    -0.18200
H3533       H  0.74174446  0.89563841  0.60082601     0.19800
H3534       H  0.75397356  0.84511264  0.64847476     0.18100
H3535       H  0.79303823  0.85329581  0.63847914     0.18100
H3536       H  0.70269900  0.88517951  0.60837218     0.13900
C3537       C  0.01235378  0.89986086  0.62950067     0.29400
C3538       C  0.99403419  0.90681825  0.63231582    -0.37000
C3539       C  0.97935426  0.89540483  0.62611877     0.15400
C3540       C  0.98264217  0.87836918  0.61763338     0.21200
C3541       C  0.00097701  0.87132339  0.61499650    -0.35100
C3542       C  0.01567826  0.88275445  0.62118569     0.15300
O3543       O  0.02796541  0.90842323  0.63402248    -0.27100
C3544       C  0.04166422  0.89683596  0.62854618     0.05100
C3545       C  0.03485537  0.88051359  0.62040861    -0.32000
O3546       O  0.96708603  0.87063046  0.61158950    -0.23800
C3547       C  0.95351167  0.88263580  0.61642705    -0.03800
C3548       C  0.96030719  0.89835230  0.62564881    -0.18200
H3549       H  0.99144642  0.92037186  0.63860947     0.19800
H3550       H  0.00358791  0.85803962  0.60816566     0.18100
H3551       H  0.04276613  0.86874819  0.61494154     0.18100
H3552       H  0.95257675  0.91064378  0.63013553     0.13900
C3553       C  0.88134904  0.98557144  0.62560077     0.29400
C3554       C  0.88473596  0.99912387  0.63946326    -0.37000
C3555       C  0.88321138  0.01802807  0.63381694     0.15400
C3556       C  0.87868939  0.02341219  0.61579155     0.21200
C3557       C  0.87520109  0.00987898  0.60197321    -0.35100
C3558       C  0.87676653  0.99100485  0.60760843     0.15300
O3559       O  0.88174275  0.96704208  0.62773872    -0.27100
C3560       C  0.87734550  0.96055440  0.61080435     0.05100
C3561       C  0.87421324  0.97491498  0.59784089    -0.32000
O3562       O  0.87980808  0.04180745  0.61318808    -0.23800
C3563       C  0.88502404  0.04834956  0.62984528    -0.03800
C3564       C  0.88723501  0.03411802  0.64312757    -0.18200
H3565       H  0.88860857  0.99522973  0.65360495     0.19800
H3566       H  0.87191715  0.01376864  0.58767939     0.18100
H3567       H  0.87002845  0.97364582  0.58332338     0.18100
H3568       H  0.89267391  0.03533764  0.65721923     0.13900
C3569       C  0.85539017  0.12901102  0.24335986     0.29400
C3570       C  0.85075166  0.13478018  0.26168602    -0.37000
C3571       C  0.85906844  0.12462688  0.27636379     0.15400
C3572       C  0.87108812  0.10982063  0.27301432     0.21200
C3573       C  0.87581726  0.10411276  0.25468657    -0.35100
C3574       C  0.86752896  0.11429797  0.24000841     0.15300
O3575       O  0.84849098  0.13604309  0.22778490    -0.27100
C3576       C  0.85629121  0.12590592  0.21412337     0.05100
C3577       C  0.86840734  0.11210537  0.22086288    -0.32000
O3578       O  0.87677576  0.10182148  0.28861179    -0.23800
C3579       C  0.86842722  0.11152374  0.30228383    -0.03800
C3580       C  0.85719171  0.12603051  0.29552316    -0.18200
H3581       H  0.84104116  0.14618864  0.26428468     0.19800
H3582       H  0.88507160  0.09233052  0.25209150     0.18100
H3583       H  0.87604772  0.10160808  0.21296855     0.18100
H3584       H  0.84863549  0.13578819  0.30343178     0.13900
C3585       C  0.72821110  0.11641535  0.37914879     0.29400
C3586       C  0.74157497  0.10710947  0.39028448    -0.37000
C3587       C  0.76051760  0.11020081  0.38557156     0.15400
C3588       C  0.76612050  0.12162668  0.37097482     0.21200
C3589       C  0.75279345  0.13093144  0.35991599    -0.35100
C3590       C  0.73392132  0.12787039  0.36463011     0.15300
O3591       O  0.70964980  0.11509812  0.38038892    -0.27100
C3592       C  0.70354574  0.12594406  0.36641533     0.05100
C3593       C  0.71809708  0.13419739  0.35635037    -0.32000
O3594       O  0.78458701  0.12197185  0.36868694    -0.23800
C3595       C  0.79090223  0.11058639  0.38206798    -0.03800
C3596       C  0.77651116  0.10293142  0.39289981    -0.18200
H3597       H  0.73753110  0.09785524  0.40160973     0.19800
H3598       H  0.75682092  0.13972555  0.34822178     0.18100
H3599       H  0.71714571  0.14325390  0.34419066     0.18100
H3600       H  0.77768385  0.09298058  0.40431726     0.13900
C3601       C  0.98311141  0.10986906  0.38392333     0.29400
C3602       C  0.00157391  0.10503008  0.37853898    -0.37000
C3603       C  0.01609821  0.11424848  0.38801110     0.15400
C3604       C  0.01245910  0.12725059  0.40182161     0.21200
C3605       C  0.99403837  0.13214716  0.40710947    -0.35100
C3606       C  0.97954899  0.12299636  0.39762910     0.15300
O3607       O  0.96758980  0.10255682  0.37730988    -0.27100
C3608       C  0.95378539  0.11111701  0.38671905     0.05100
C3609       C  0.96039650  0.12406680  0.39962574    -0.32000
O3610       O  0.02787346  0.13367362  0.40944779    -0.23800
C3611       C  0.04178636  0.12484830  0.40052494    -0.03800
C3612       C  0.03532311  0.11254251  0.38686213    -0.18200
H3613       H  0.00438628  0.09459381  0.36789926     0.19800
H3614       H  0.99123017  0.14222255  0.41809208     0.18100
H3615       H  0.95238350  0.13258495  0.40932698     0.18100
H3616       H  0.04345973  0.10336107  0.37789448     0.13900
C3617       C  0.88450985  0.12549886  0.48959816     0.29400
C3618       C  0.89449211  0.13589655  0.50288648    -0.37000
C3619       C  0.89047601  0.13205174  0.52186300     0.15400
C3620       C  0.87755559  0.11892518  0.52764551     0.21200
C3621       C  0.86743039  0.10866695  0.51435805    -0.35100
C3622       C  0.87147923  0.11248662  0.49538864     0.15300
O3623       O  0.88672775  0.12593304  0.47106392    -0.27100
C3624       C  0.87486323  0.11298341  0.46497847     0.05100
C3625       C  0.86509327  0.10431937  0.47955839    -0.32000
O3626       O  0.87714434  0.11670090  0.54617157    -0.23800
C3627       C  0.89000835  0.12865575  0.55227484    -0.03800
C3628       C  0.89855197  0.13854562  0.53771163    -0.18200
H3629       H  0.90509184  0.14587453  0.49876689     0.19800
H3630       H  0.85752383  0.09800134  0.51848153     0.18100
H3631       H  0.85506838  0.09304608  0.47863976     0.18100
H3632       H  0.90987256  0.14851558  0.53863507     0.13900
C3633       C  0.87928852  0.00616854  0.48692278     0.29400
C3634       C  0.87132950  0.00025402  0.50391564    -0.37000
C3635       C  0.87757790  0.98285242  0.51063598     0.15400
C3636       C  0.89089944  0.97220025  0.50133808     0.21200
C3637       C  0.89930062  0.97839706  0.48479868    -0.35100
C3638       C  0.89287973  0.99557048  0.47797258     0.15300
O3639       O  0.87321346  0.02012676  0.47641510    -0.27100
C3640       C  0.88307852  0.01830058  0.46068050     0.05100
C3641       C  0.89563913  0.00344102  0.46094525    -0.32000
O3642       O  0.89241131  0.95518932  0.50813195    -0.23800
C3643       C  0.88004908  0.95492778  0.52201322    -0.03800
C3644       C  0.87055190  0.97178249  0.52449016    -0.18200
H3645       H  0.85994059  0.00785932  0.51053176     0.19800
H3646       H  0.90892667  0.96965036  0.47691525     0.18100
H3647       H  0.90415247  0.99810185  0.44953209     0.18100
H3648       H  0.85889087  0.97474708  0.53378351     0.13900
C3649       C  0.12441251  0.85799257  0.24321297     0.29400
C3650       C  0.12859182  0.85262507  0.26181050    -0.37000
C3651       C  0.11965935  0.86292382  0.27611881     0.15400
C3652       C  0.10748452  0.87745862  0.27219042     0.21200
C3653       C  0.10349681  0.88295236  0.25363908    -0.35100
C3654       C  0.11238502  0.87266943  0.23937044     0.15300
O3655       O  0.13044320  0.84969603  0.22781246    -0.27100
C3656       C  0.12225747  0.85913069  0.21383918     0.05100
C3657       C  0.11088551  0.87370171  0.22019958    -0.32000
O3658       O  0.09983185  0.88454997  0.28744007    -0.23800
C3659       C  0.10716956  0.87464784  0.30152579    -0.03800
C3660       C  0.11974762  0.86094929  0.29534010    -0.18200
H3661       H  0.13781284  0.84093441  0.26487871     0.19800
H3662       H  0.09373472  0.89419148  0.25055658     0.18100
H3663       H  0.10236571  0.88323002  0.21199183     0.18100
H3664       H  0.12720990  0.85064184  0.30363675     0.13900
C3665       C  0.10075087  0.76865345  0.38110993     0.29400
C3666       C  0.09528081  0.75015532  0.38538967    -0.37000
C3667       C  0.10613414  0.73569734  0.37738701     0.15400
C3668       C  0.12116900  0.73937639  0.36581478     0.21200
C3669       C  0.12662565  0.75784734  0.36154410    -0.35100
C3670       C  0.11589774  0.77227981  0.36967042     0.15300
O3671       O  0.09254711  0.78415699  0.38704254    -0.27100
C3672       C  0.10251432  0.79800867  0.37941153     0.05100
C3673       C  0.11729776  0.79144070  0.36841547    -0.32000
O3674       O  0.12899078  0.72395319  0.35926729    -0.23800
C3675       C  0.11907408  0.71002330  0.36677674    -0.03800
C3676       C  0.10460555  0.71649114  0.37828890    -0.18200
H3677       H  0.08333814  0.74726118  0.39429368     0.19800
H3678       H  0.13838530  0.76074404  0.35239937     0.18100
H3679       H  0.12744054  0.79952736  0.36058643     0.18100
H3680       H  0.09412835  0.70834750  0.38559481     0.13900
C3681       C  0.10725872  0.98959112  0.38447775     0.29400
C3682       C  0.10240306  0.00810849  0.37961784    -0.37000
C3683       C  0.11086135  0.02234291  0.39005951     0.15400
C3684       C  0.12326763  0.01850884  0.40434140     0.21200
C3685       C  0.12826828  0.99992531  0.40913257    -0.35100
C3686       C  0.11978093  0.98562948  0.39863054     0.15300
O3687       O  0.10009716  0.97437108  0.37712280    -0.27100
C3688       C  0.10804036  0.96024013  0.38647371     0.05100
C3689       C  0.12060765  0.96637288  0.40006187    -0.32000
O3690       O  0.12908052  0.03389873  0.41263456    -0.23800
C3691       C  0.12040916  0.04783612  0.40354107    -0.03800
C3692       C  0.10884731  0.04146723  0.38928877    -0.18200
H3693       H  0.09238902  0.01117367  0.36865822     0.19800
H3694       H  0.13783816  0.99684878  0.42048004     0.18100
H3695       H  0.12844661  0.95801479  0.41002531     0.18100
H3696       H  0.10006392  0.04964429  0.37998455     0.13900
C3697       C  0.97763453  0.00966022  0.38995363     0.29400
C3698       C  0.99493603  0.00419371  0.38222044    -0.37000
C3699       C  0.00203078  0.98684402  0.38830640     0.15400
C3700       C  0.99279890  0.97586886  0.40132129     0.21200
C3701       C  0.97600711  0.98167499  0.40960443    -0.35100
C3702       C  0.96881373  0.99877118  0.40332567     0.15300
O3703       O  0.96666547  0.02317167  0.38357967    -0.27100
C3704       C  0.95076420  0.02076148  0.39302513     0.05100
C3705       C  0.95142681  0.00603826  0.40569432    -0.32000
O3706       O  0.99990799  0.95892899  0.40258656    -0.23800
C3707       C  0.01397209  0.95898317  0.39039478    -0.03800
C3708       C  0.01620745  0.97603712  0.38123890    -0.18200
H3709       H  0.00147287  0.01200943  0.37097595     0.19800
H3710       H  0.96817493  0.97263114  0.41892781     0.18100
H3711       H  0.94002845  0.00020991  0.41383609     0.18100
H3712       H  0.02554236  0.97928859  0.36971243     0.13900
C3713       C  0.10642465  0.87997545  0.49266867     0.29400
C3714       C  0.10198895  0.87444895  0.51110354    -0.37000
C3715       C  0.11143625  0.88374406  0.52552597     0.15400
C3716       C  0.12433389  0.89758470  0.52191888     0.21200
C3717       C  0.12896150  0.90297223  0.50343051    -0.35100
C3718       C  0.11951639  0.89361370  0.48897027     0.15300
O3719       O  0.09843516  0.87375771  0.47733029    -0.27100
C3720       C  0.10649767  0.88329914  0.46342913     0.05100
C3721       C  0.11986798  0.89590448  0.46979876    -0.32000
O3722       O  0.13053686  0.90532347  0.53743507    -0.23800
C3723       C  0.12162809  0.89633502  0.55124086    -0.03800
C3724       C  0.10960825  0.88259897  0.54466763    -0.18200
H3725       H  0.09148938  0.86395664  0.51399336     0.19800
H3726       H  0.13885505  0.91404458  0.50056333     0.18100
H3727       H  0.12801175  0.90575675  0.46166239     0.18100
H3728       H  0.10027672  0.87376668  0.55269689     0.13900
C3729       C  0.96537791  0.90083910  0.50018858     0.29400
C3730       C  0.97075207  0.90835598  0.48290584    -0.37000
C3731       C  0.98798735  0.90217908  0.47587814     0.15400
C3732       C  0.99938845  0.88963317  0.48530055     0.21200
C3733       C  0.99431178  0.88262938  0.50300136    -0.35100
C3734       C  0.97686779  0.88862732  0.50995117     0.15300
O3735       O  0.94845923  0.90197204  0.50739150    -0.27100
C3736       C  0.94906511  0.89046831  0.52200523     0.05100
C3737       C  0.96646093  0.88199668  0.52455209    -0.32000
O3738       O  0.01333701  0.88348430  0.47474689    -0.23800
C3739       C  0.01073193  0.89225296  0.45847259    -0.03800
C3740       C  0.99533985  0.90419598  0.45846298    -0.18200
H3741       H  0.96137916  0.91707643  0.47472171     0.19800
H3742       H  0.00258453  0.87202246  0.51007457     0.18100
H3743       H  0.97017756  0.87099588  0.53434851     0.18100
H3744       H  0.98941941  0.91185231  0.44675521     0.13900
C3745       C  0.74597152  0.86680621  0.48491779     0.29400
C3746       C  0.75112826  0.87383110  0.50251345    -0.37000
C3747       C  0.76885368  0.86832261  0.50904152     0.15400
C3748       C  0.78053436  0.85650238  0.49901457     0.21200
C3749       C  0.77507168  0.84887703  0.48186663    -0.35100
C3750       C  0.75753927  0.85458098  0.47524720     0.15300
O3751       O  0.73193906  0.87296779  0.47455104    -0.27100
C3752       C  0.73465117  0.86454106  0.45814897     0.05100
C3753       C  0.75013871  0.85271300  0.45789907    -0.32000
O3754       O  0.79754257  0.85567290  0.50597251    -0.23800
C3755       C  0.79678181  0.86695412  0.52072626    -0.03800
C3756       C  0.77923401  0.87504541  0.52352317    -0.18200
H3757       H  0.74269626  0.88419156  0.50976881     0.19800
H3758       H  0.78455356  0.84047364  0.47345465     0.18100
H3759       H  0.75625250  0.84550126  0.44600092     0.18100
H3760       H  0.77528567  0.88570612  0.53357748     0.13900
C3761       C  0.64019176  0.87852191  0.49232064     0.29400
C3762       C  0.64467666  0.88406492  0.51070243    -0.37000
C3763       C  0.63664299  0.87352926  0.52525122     0.15400
C3764       C  0.62502329  0.85860654  0.52173339     0.21200
C3765       C  0.62041222  0.85316915  0.50337562    -0.35100
C3766       C  0.62840135  0.86371954  0.48884550     0.15300
O3767       O  0.64721530  0.88558541  0.47680461    -0.27100
C3768       C  0.63979951  0.87535997  0.46311987     0.05100
C3769       C  0.62780575  0.86155252  0.46973859    -0.32000
O3770       O  0.61943134  0.85033881  0.53721212    -0.23800
C3771       C  0.62740674  0.86001148  0.55097642    -0.03800
C3772       C  0.63836801  0.87470269  0.54440984    -0.18200
H3773       H  0.65412823  0.89552254  0.51343125     0.19800
H3774       H  0.61150066  0.84128565  0.50064019     0.18100
H3775       H  0.62070609  0.85083786  0.46180758     0.18100
H3776       H  0.64649314  0.88456405  0.55245460     0.13900
C3777       C  0.64130826  0.76690803  0.38429253     0.29400
C3778       C  0.64627614  0.74843643  0.37935590    -0.37000
C3779       C  0.63711769  0.73406767  0.38913686     0.15400
C3780       C  0.62399928  0.73776218  0.40287772     0.21200
C3781       C  0.61889333  0.75627068  0.40771545    -0.35100
C3782       C  0.62804508  0.77067588  0.39787646     0.15300
O3783       O  0.64884922  0.78225293  0.37746914    -0.27100
C3784       C  0.64036685  0.79623250  0.38659814     0.05100
C3785       C  0.62713064  0.78988715  0.39950988    -0.32000
O3786       O  0.61779463  0.72232078  0.41084142    -0.23800
C3787       C  0.62692337  0.70846261  0.40210322    -0.03800
C3788       C  0.63914080  0.71493360  0.38834266    -0.18200
H3789       H  0.65686183  0.74549811  0.36885488     0.19800
H3790       H  0.60876328  0.75920908  0.41865651     0.18100
H3791       H  0.61867048  0.79809110  0.40910386     0.18100
H3792       H  0.64850156  0.70683589  0.37952018     0.13900
C3793       C  0.63005920  0.98353646  0.37049025     0.29400
C3794       C  0.62097715  0.99701242  0.35937549    -0.37000
C3795       C  0.62432269  0.01586151  0.36393679     0.15400
C3796       C  0.63572052  0.02142887  0.37845683     0.21200
C3797       C  0.64472259  0.00791066  0.38971074    -0.35100
C3798       C  0.64143676  0.98899442  0.38508360     0.15300
O3799       O  0.62991457  0.96509225  0.36797500    -0.27100
C3800       C  0.64140596  0.95864313  0.38119418     0.05100
C3801       C  0.64883630  0.97292828  0.39219727    -0.32000
O3802       O  0.63728090  0.03999654  0.37958342    -0.23800
C3803       C  0.62666685  0.04626634  0.36550384    -0.03800
C3804       C  0.61837903  0.03178152  0.35547558    -0.18200
H3805       H  0.61228329  0.99311254  0.34763252     0.19800
H3806       H  0.65401783  0.01181905  0.40097717     0.18100
H3807       H  0.65895624  0.97167183  0.40340701     0.18100
H3808       H  0.60940900  0.03283726  0.34330473     0.13900
C3809       C  0.74871789  0.97846664  0.37897576     0.29400
C3810       C  0.75340685  0.99610453  0.38620689    -0.37000
C3811       C  0.77079116  0.00322866  0.38047142     0.15400
C3812       C  0.78250301  0.99367153  0.36829355     0.21200
C3813       C  0.77761430  0.97640224  0.36071681    -0.35100
C3814       C  0.76047442  0.96922236  0.36661313     0.15300
O3815       O  0.73462340  0.96791714  0.38447140    -0.27100
C3816       C  0.73754718  0.95185961  0.37546617     0.05100
C3817       C  0.75329281  0.95193873  0.36406661    -0.32000
O3818       O  0.79904963  0.00134698  0.36679001    -0.23800
C3819       C  0.79804185  0.01606445  0.37802583    -0.03800
C3820       C  0.78073972  0.01817863  0.38681627    -0.18200
H3821       H  0.74477944  0.00310845  0.39657716     0.19800
H3822       H  0.78716350  0.96846775  0.35193441     0.18100
H3823       H  0.75938680  0.94041416  0.35625737     0.18100
H3824       H  0.77672875  0.02817609  0.39750879     0.13900
C3825       C  0.63055096  0.89361002  0.27726919     0.29400
C3826       C  0.62145095  0.90528881  0.26428708    -0.37000
C3827       C  0.62489782  0.90140281  0.24523825     0.15400
C3828       C  0.63644008  0.88705296  0.23913867     0.21200
C3829       C  0.64549721  0.87535116  0.25212117    -0.35100
C3830       C  0.64206374  0.87924227  0.27115677     0.15300
O3831       O  0.63008342  0.89511306  0.29582847    -0.27100
C3832       C  0.64147855  0.88144603  0.30157019     0.05100
C3833       C  0.64919647  0.87120767  0.28679535    -0.32000
O3834       O  0.63788930  0.88629028  0.22057585    -0.23800
C3835       C  0.62708504  0.90040850  0.21477829    -0.03800
C3836       C  0.61873563  0.91017789  0.22956118    -0.18200
H3837       H  0.61254771  0.91679823  0.26869138     0.19800
H3838       H  0.65480389  0.86416004  0.24772801     0.18100
H3839       H  0.65922222  0.85978632  0.28748820     0.18100
H3840       H  0.60950214  0.92224494  0.22883886     0.13900
C3841       C  0.76903228  0.63124044  0.39721676     0.29400
C3842       C  0.75569600  0.62243598  0.40871989    -0.37000
C3843       C  0.73674220  0.62570436  0.40418619     0.15400
C3844       C  0.73103657  0.63677789  0.38935354     0.21200
C3845       C  0.74437397  0.64537990  0.37770917    -0.35100
C3846       C  0.76332069  0.64216824  0.38227789     0.15300
O3847       O  0.78749923  0.63146835  0.39972761    -0.27100
C3848       C  0.79363863  0.64270063  0.38610979     0.05100
C3849       C  0.77915712  0.64957027  0.37488986    -0.32000
O3850       O  0.71249674  0.63863238  0.38836226    -0.23800
C3851       C  0.70628917  0.62855194  0.40282651    -0.03800
C3852       C  0.72082086  0.62022733  0.41299030    -0.18200
H3853       H  0.75976099  0.61412881  0.42076265     0.19800
H3854       H  0.74029525  0.65445277  0.36623588     0.18100
H3855       H  0.78009487  0.65954021  0.36347200     0.18100
H3856       H  0.71979204  0.61164635  0.42547996     0.13900
C3857       C  0.76910934  0.74913673  0.39199067     0.29400
C3858       C  0.75231442  0.75490978  0.38365542    -0.37000
C3859       C  0.74493226  0.77193041  0.39006027     0.15400
C3860       C  0.75347777  0.78245027  0.40380961     0.21200
C3861       C  0.76987307  0.77636993  0.41259275    -0.35100
C3862       C  0.77733799  0.75949468  0.40605641     0.15300
O3863       O  0.78013262  0.73566486  0.38580732    -0.27100
C3864       C  0.79549511  0.73751653  0.39604081     0.05100
C3865       C  0.79449032  0.75190670  0.40901626    -0.32000
O3866       O  0.74622917  0.79930751  0.40527595    -0.23800
C3867       C  0.73278617  0.79950458  0.39249907    -0.03800
C3868       C  0.73108420  0.78281728  0.38276044    -0.18200
H3869       H  0.74635052  0.74753136  0.37187961     0.19800
H3870       H  0.77721083  0.78503109  0.42257166     0.18100
H3871       H  0.80554121  0.75725129  0.41784293     0.18100
H3872       H  0.72242335  0.77994656  0.37068729     0.13900
C3873       C  0.85188331  0.76050173  0.47857192     0.29400
C3874       C  0.84503796  0.77810359  0.48374713    -0.37000
C3875       C  0.85147396  0.78498412  0.50082661     0.15400
C3876       C  0.86360804  0.77513308  0.51230431     0.21200
C3877       C  0.86985118  0.75709390  0.50745831    -0.35100
C3878       C  0.86368768  0.75031020  0.49010380     0.15300
O3879       O  0.85068460  0.75338241  0.46169185    -0.27100
C3880       C  0.86177324  0.73842884  0.46231235     0.05100
C3881       C  0.87003024  0.73555038  0.47971022    -0.32000
O3882       O  0.87049878  0.78564530  0.52579785    -0.23800
C3883       C  0.86262414  0.80230224  0.52279365    -0.03800
C3884       C  0.85048157  0.80260893  0.50765980    -0.18200
H3885       H  0.83680359  0.78663310  0.47424328     0.19800
H3886       H  0.88021937  0.74968374  0.51571642     0.18100
H3887       H  0.88076965  0.72544594  0.48341665     0.18100
H3888       H  0.84353948  0.81460088  0.50139368     0.13900
C3889       C  0.86152193  0.63324373  0.49033104     0.29400
C3890       C  0.85041615  0.62368481  0.50346538    -0.37000
C3891       C  0.85398772  0.62751393  0.52247646     0.15400
C3892       C  0.86753445  0.63984381  0.52842718     0.21200
C3893       C  0.87871585  0.64933229  0.51529740    -0.35100
C3894       C  0.87513249  0.64550945  0.49627358     0.15300
O3895       O  0.85988613  0.63272042  0.47176962    -0.27100
C3896       C  0.87270942  0.64483480  0.46578622     0.05100
C3897       C  0.88256096  0.65304913  0.48047687    -0.32000
O3898       O  0.86786324  0.64178149  0.54696329    -0.23800
C3899       C  0.85428695  0.63047932  0.55288245    -0.03800
C3900       C  0.84531150  0.62132234  0.53821158    -0.18200
H3901       H  0.83942540  0.61425941  0.49918588     0.19800
H3902       H  0.88918911  0.65933422  0.51956510     0.18100
H3903       H  0.89319172  0.66376765  0.47963758     0.18100
H3904       H  0.83365871  0.61172023  0.53902328     0.13900
C3905       C  0.98001768  0.63643219  0.37056772     0.29400
C3906       C  0.99331163  0.62601581  0.36041072    -0.37000
C3907       C  0.01221504  0.62984103  0.36433112     0.15400
C3908       C  0.01789507  0.64294253  0.37730907     0.21200
C3909       C  0.00460583  0.65332803  0.38746401    -0.35100
C3910       C  0.98572224  0.64952278  0.38354106     0.15300
O3911       O  0.96151086  0.63571699  0.36883156    -0.27100
C3912       C  0.95540972  0.64858816  0.38091012     0.05100
C3913       C  0.96989228  0.65748256  0.39036418    -0.32000
O3914       O  0.03639551  0.64455697  0.37823683    -0.23800
C3915       C  0.04257131  0.63225342  0.36564110    -0.03800
C3916       C  0.02810561  0.62279621  0.35666407    -0.18200
H3917       H  0.98924849  0.61585229  0.34997668     0.19800
H3918       H  0.00866856  0.66386013  0.39752318     0.18100
H3919       H  0.96888766  0.66862728  0.40059403     0.18100
H3920       H  0.02916731  0.61241321  0.34566396     0.13900
C3921       C  0.97390513  0.75525585  0.37934132     0.29400
C3922       C  0.99107381  0.76117960  0.38666079    -0.37000
C3923       C  0.99773162  0.77832239  0.37983092     0.15400
C3924       C  0.98823876  0.78878041  0.36654366     0.21200
C3925       C  0.97146515  0.78254132  0.35874576    -0.35100
C3926       C  0.96467589  0.76559896  0.36578262     0.15300
O3927       O  0.96361593  0.74144758  0.38594269    -0.27100
C3928       C  0.94767050  0.74308455  0.37649973     0.05100
C3929       C  0.94761264  0.75769395  0.36364442    -0.32000
O3930       O  0.99531237  0.80559760  0.36431136    -0.23800
C3931       C  0.00958549  0.80587150  0.37617609    -0.03800
C3932       C  0.01194908  0.78924100  0.38605911    -0.18200
H3933       H  0.99795495  0.75374605  0.39797273     0.19800
H3934       H  0.96346689  0.79107328  0.34905004     0.18100
H3935       H  0.93605403  0.76276869  0.35521295     0.18100
H3936       H  0.02159613  0.78631142  0.39738499     0.13900
C3937       C  0.88906795  0.63774033  0.27798077     0.29400
C3938       C  0.90071523  0.62908857  0.26459723    -0.37000
C3939       C  0.89611509  0.63223406  0.24563637     0.15400
C3940       C  0.88111374  0.64309829  0.23994179     0.21200
C3941       C  0.86945369  0.65175931  0.25333991    -0.35100
C3942       C  0.87406815  0.64863222  0.27232420     0.15300
O3943       O  0.89110554  0.63729342  0.29652148    -0.27100
C3944       C  0.87715613  0.64809623  0.30281536     0.05100
C3945       C  0.86621219  0.65542399  0.28831724    -0.32000
O3946       O  0.87967331  0.64426296  0.22135000    -0.23800
C3947       C  0.89403426  0.63395785  0.21511287    -0.03800
C3948       C  0.90460010  0.62623359  0.22968586    -0.18200
H3949       H  0.91269671  0.62066526  0.26864764     0.19800
H3950       H  0.85771731  0.66051670  0.24928225     0.18100
H3951       H  0.85438812  0.66493155  0.28941595     0.18100
H3952       H  0.91697197  0.61744166  0.22865078     0.13900
C3953       C  0.86552956  0.02270863  0.14451629     0.29400
C3954       C  0.87765573  0.00910419  0.15204601    -0.37000
C3955       C  0.87263404  0.99028299  0.14918321     0.15400
C3956       C  0.85677363  0.98490781  0.13963498     0.21200
C3957       C  0.84463019  0.99851839  0.13207041    -0.35100
C3958       C  0.84968434  0.01737022  0.13491541     0.15300
O3959       O  0.86734582  0.04121599  0.14565102    -0.27100
C3960       C  0.85238605  0.04780460  0.13660184     0.05100
C3961       C  0.84103198  0.03352572  0.12971264    -0.32000
O3962       O  0.85444473  0.96642193  0.13954407    -0.23800
C3963       C  0.86912743  0.95996930  0.14915969    -0.03800
C3964       C  0.88078533  0.97424561  0.15536528    -0.18200
H3965       H  0.89005038  0.01289689  0.15982054     0.19800
H3966       H  0.83197805  0.99472564  0.12471804     0.18100
H3967       H  0.82809940  0.03488839  0.12192758     0.18100
H3968       H  0.89317164  0.97299236  0.16400536     0.13900
C3969       C  0.01325732  0.86117445  0.13313037     0.29400
C3970       C  0.99489347  0.85612023  0.12817256    -0.37000
C3971       C  0.98032737  0.86567184  0.13740878     0.15400
C3972       C  0.98376547  0.87926482  0.15062169     0.21200
C3973       C  0.00216630  0.88448097  0.15544215    -0.35100
C3974       C  0.01676017  0.87489840  0.14619362     0.15300
O3975       O  0.02871843  0.85314314  0.12700656    -0.27100
C3976       C  0.04249389  0.86172549  0.13610312     0.05100
C3977       C  0.03592597  0.87558676  0.14823286    -0.32000
O3978       O  0.96820582  0.88569411  0.15828572    -0.23800
C3979       C  0.95450389  0.87627102  0.14987922    -0.03800
C3980       C  0.96121145  0.86358235  0.13663695    -0.18200
H3981       H  0.99218177  0.84511302  0.11815524     0.19800
H3982       H  0.00488397  0.89493039  0.16604025     0.18100
H3983       H  0.04393275  0.88423049  0.15768219     0.18100
H3984       H  0.95329929  0.85382017  0.12826309     0.13900
C3985       C  0.86576361  0.00529944  0.28177374     0.29400
C3986       C  0.87269442  0.00011798  0.26405706    -0.37000
C3987       C  0.86695358  0.98258065  0.25739918     0.15400
C3988       C  0.85500900  0.97114395  0.26743225     0.21200
C3989       C  0.84765919  0.97654834  0.28478565    -0.35100
C3990       C  0.85359003  0.99386319  0.29152363     0.15300
O3991       O  0.87167811  0.01943174  0.29202829    -0.27100
C3992       C  0.86317504  0.01688322  0.30845368     0.05100
C3993       C  0.85158993  0.00136344  0.30884841    -0.32000
O3994       O  0.85350983  0.95439067  0.26007014    -0.23800
C3995       C  0.86451112  0.95501278  0.24506348    -0.03800
C3996       C  0.87314081  0.97225300  0.24250667    -0.18200
H3997       H  0.88295837  0.00847414  0.25668233     0.19800
H3998       H  0.83909371  0.96722995  0.29312986     0.18100
H3999       H  0.84421713  0.99546471  0.32074250     0.18100
H4000       H  0.88362982  0.97602686  0.23220252     0.13900
C4001       C  0.97611277  0.87297173  0.25488818     0.29400
C4002       C  0.99347838  0.88047802  0.26013795    -0.37000
C4003       C  0.00057598  0.87443793  0.27749689     0.15400
C4004       C  0.99131160  0.86164870  0.28868239     0.21200
C4005       C  0.97445362  0.85357308  0.28307338    -0.35100
C4006       C  0.96721233  0.85986595  0.26599474     0.15300
O4007       O  0.96525514  0.87921584  0.24124617    -0.27100
C4008       C  0.94928995  0.86999467  0.24378237     0.05100
C4009       C  0.94982617  0.85760744  0.25877692    -0.32000
O4010       O  0.99845767  0.86040701  0.30559808    -0.23800
C4011       C  0.01257868  0.87240006  0.30532220    -0.03800
C4012       C  0.01481044  0.88136475  0.28812335    -0.18200
H4013       H  0.00009640  0.89151221  0.25212755     0.19800
H4014       H  0.96662178  0.84438017  0.29224506     0.18100
H4015       H  0.93841738  0.84954527  0.26463830     0.18100
H4016       H  0.02421093  0.89270110  0.28465903     0.13900
C4017       C  0.88942507  0.78558746  0.26660457     0.29400
C4018       C  0.89744303  0.77976536  0.28348503    -0.37000
C4019       C  0.89019170  0.76336219  0.29121616     0.15400
C4020       C  0.87624362  0.75309175  0.28274798     0.21200
C4021       C  0.86863446  0.75859739  0.26547444    -0.35100
C4022       C  0.87568240  0.77525640  0.25786788     0.15300
O4023       O  0.89184478  0.80206617  0.25881520    -0.27100
C4024       C  0.87967483  0.80228520  0.24482013     0.05100
C4025       C  0.86935088  0.78592199  0.24333334    -0.32000
O4026       O  0.86971113  0.73981097  0.29377893    -0.23800
C4027       C  0.87957310  0.74176403  0.30941600    -0.03800
C4028       C  0.89260973  0.75604094  0.30857727    -0.18200
H4029       H  0.90748871  0.78828919  0.29087042     0.19800
H4030       H  0.85701689  0.75126477  0.25919775     0.18100
H4031       H  0.85765917  0.78312427  0.23415173     0.18100
H4032       H  0.90145292  0.76123636  0.31969261     0.13900
C4033       C  0.87656725  0.76906308  0.15135311     0.29400
C4034       C  0.87215245  0.75071222  0.15689165    -0.37000
C4035       C  0.88074698  0.73628785  0.14668213     0.15400
C4036       C  0.89294348  0.73981627  0.13208811     0.21200
C4037       C  0.89725898  0.75823469  0.12643160    -0.35100
C4038       C  0.88858561  0.77270712  0.13663920     0.15300
O4039       O  0.87048397  0.78442500  0.15944416    -0.27100
C4040       C  0.87854296  0.79826543  0.14989846     0.05100
C4041       C  0.89001561  0.79187847  0.13540549    -0.32000
O4042       O  0.90019726  0.72430522  0.12516447    -0.23800
C4043       C  0.89248297  0.71061855  0.13529394    -0.03800
C4044       C  0.88014583  0.71722574  0.14889352    -0.18200
H4045       H  0.86289316  0.74790670  0.16859531     0.19800
H4046       H  0.90697860  0.76105131  0.11511279     0.18100
H4047       H  0.89838984  0.80003463  0.12575017     0.18100
H4048       H  0.87256360  0.70927391  0.15934902     0.13900
C4049       C  0.77723198  0.89703828  0.26243656     0.29400
C4050       C  0.77103401  0.90491210  0.27925389    -0.37000
C4051       C  0.75442494  0.89769291  0.28656396     0.15400
C4052       C  0.74419128  0.88396146  0.27770529     0.21200
C4053       C  0.74992847  0.87671406  0.26028586    -0.35100
C4054       C  0.76692569  0.88361594  0.25318075     0.15300
O4055       O  0.79420365  0.89887766  0.25556422    -0.27100
C4056       C  0.79486790  0.88663399  0.24164709     0.05100
C4057       C  0.77821353  0.87691474  0.23921723    -0.32000
O4058       O  0.73121171  0.87678158  0.28877634    -0.23800
C4059       C  0.73335508  0.88601551  0.30481315    -0.03800
C4060       C  0.74736377  0.89933699  0.30412683    -0.18200
H4061       H  0.77964068  0.91450539  0.28713172     0.19800
H4062       H  0.74273515  0.86514683  0.25375617     0.18100
H4063       H  0.77561061  0.86519833  0.22999997     0.18100
H4064       H  0.75286407  0.90758857  0.31554998     0.13900
C4065       C  0.76738048  0.89179076  0.13715737     0.29400
C4066       C  0.75418736  0.90256555  0.12722699    -0.37000
C4067       C  0.73519032  0.89891743  0.13113656     0.15400
C4068       C  0.72932260  0.88554454  0.14383038     0.21200
C4069       C  0.74251325  0.87462147  0.15360740    -0.35100
C4070       C  0.76150830  0.87835454  0.14978228     0.15300
O4071       O  0.78591379  0.89360655  0.13666275    -0.27100
C4072       C  0.79193854  0.88109396  0.14918324     0.05100
C4073       C  0.77731142  0.87127289  0.15763784    -0.32000
O4074       O  0.71081280  0.88534810  0.14605139    -0.23800
C4075       C  0.70479405  0.89885334  0.13459087    -0.03800
C4076       C  0.71940174  0.90759943  0.12498699    -0.18200
H4077       H  0.75840826  0.91346307  0.11755879     0.19800
H4078       H  0.73830388  0.86433205  0.16392999     0.18100
H4079       H  0.77818827  0.86079439  0.16860114     0.18100
H4080       H  0.71853316  0.91923842  0.11526804     0.13900
C4081       C  0.76453436  0.60828890  0.88263943     0.29400
C4082       C  0.74620052  0.60257533  0.88722572    -0.37000
C4083       C  0.73151025  0.61365373  0.88011055     0.15400
C4084       C  0.73482980  0.62925893  0.86922090     0.21200
C4085       C  0.75317974  0.63511775  0.86485643    -0.35100
C4086       C  0.76787917  0.62400315  0.87192835     0.15300
O4087       O  0.78011491  0.59950147  0.88724564    -0.27100
C4088       C  0.79381418  0.60959268  0.87951947     0.05100
C4089       C  0.78703563  0.62513173  0.86974674    -0.32000
O4090       O  0.71924155  0.63662641  0.86259412    -0.23800
C4091       C  0.70560422  0.62580843  0.86934558    -0.03800
C4092       C  0.71239059  0.61128646  0.88054873    -0.18200
H4093       H  0.74359235  0.59002881  0.89533907     0.19800
H4094       H  0.75577415  0.64717295  0.85602381     0.18100
H4095       H  0.79493816  0.63550700  0.86204127     0.18100
H4096       H  0.70459424  0.59994716  0.88686902     0.13900
C4097       C  0.86317189  0.62329053  0.77741991     0.29400
C4098       C  0.85184426  0.63286042  0.76449149    -0.37000
C4099       C  0.85513944  0.62887132  0.74545505     0.15400
C4100       C  0.86868386  0.61644230  0.73925915     0.21200
C4101       C  0.88014985  0.60697560  0.75219568    -0.35100
C4102       C  0.87679322  0.61090989  0.77127430     0.15300
O4103       O  0.86158924  0.62375058  0.79597834    -0.27100
C4104       C  0.87443675  0.61146932  0.80176581     0.05100
C4105       C  0.88430551  0.60323714  0.78696358    -0.32000
O4106       O  0.86872697  0.61443612  0.72071963    -0.23800
C4107       C  0.85495314  0.62578832  0.71508954    -0.03800
C4108       C  0.84613950  0.63501224  0.72993032    -0.18200
H4109       H  0.84082556  0.64234412  0.76895380     0.19800
H4110       H  0.89060674  0.59686314  0.74776405     0.18100
H4111       H  0.89490074  0.59234258  0.78766017     0.18100
H4112       H  0.83444151  0.64472077  0.72936594     0.13900
C4113       C  0.98143065  0.62092934  0.89600660     0.29400
C4114       C  0.99438206  0.63189404  0.90585101    -0.37000
C4115       C  0.01348130  0.62826150  0.90217094     0.15400
C4116       C  0.01966276  0.61483927  0.88966106     0.21200
C4117       C  0.00671689  0.60390729  0.87978962    -0.35100
C4118       C  0.98761729  0.60750033  0.88350791     0.15300
O4119       O  0.96285099  0.62146769  0.89763975    -0.27100
C4120       C  0.95709025  0.60812552  0.88599313     0.05100
C4121       C  0.97196542  0.59909948  0.87690689    -0.32000
O4122       O  0.03825011  0.61349517  0.88888054    -0.23800
C4123       C  0.04401326  0.62629972  0.90109685    -0.03800
C4124       C  0.02914968  0.63580748  0.90968847    -0.18200
H4125       H  0.98991749  0.64234340  0.91591140     0.19800
H4126       H  0.01119627  0.59312675  0.87009153     0.18100
H4127       H  0.97132922  0.58764245  0.86701723     0.18100
H4128       H  0.02981469  0.64655218  0.92034822     0.13900
C4129       C  0.88629362  0.62093465  0.98916181     0.29400
C4130       C  0.89301953  0.63374941  0.00243803    -0.37000
C4131       C  0.89003314  0.62911360  0.02144807     0.15400
C4132       C  0.88107922  0.61301619  0.02723355     0.21200
C4133       C  0.87435023  0.60022185  0.01396894    -0.35100
C4134       C  0.87735227  0.60484881  0.99498684     0.15300
O4135       O  0.88750861  0.62231626  0.97057356    -0.27100
C4136       C  0.87920166  0.60681316  0.96449008     0.05100
C4137       C  0.87274261  0.59554643  0.97913625    -0.32000
O4138       O  0.88082025  0.61102974  0.04578222    -0.23800
C4139       C  0.88971199  0.62615739  0.05194958    -0.03800
C4140       C  0.89565103  0.63779315  0.03736635    -0.18200
H4141       H  0.90029162  0.64635189  0.99828056     0.19800
H4142       H  0.86750552  0.58738048  0.01812904     0.18100
H4143       H  0.86545070  0.58233265  0.97820780     0.18100
H4144       H  0.90387935  0.65043442  0.03835854     0.13900
C4145       C  0.87308532  0.26996100  0.11278517     0.29400
C4146       C  0.87845572  0.25157575  0.10777483    -0.37000
C4147       C  0.86927617  0.23694103  0.11720076     0.15400
C4148       C  0.85568869  0.24039751  0.13053314     0.21200
C4149       C  0.85032955  0.25876479  0.13555738    -0.35100
C4150       C  0.85958951  0.27338630  0.12622168     0.15300
O4151       O  0.87958505  0.28553146  0.10537670    -0.27100
C4152       C  0.87032295  0.29927086  0.11414339     0.05100
C4153       C  0.85762130  0.29255201  0.12738242    -0.32000
O4154       O  0.84846685  0.22486252  0.13724060    -0.23800
C4155       C  0.85746438  0.21107731  0.12828172    -0.03800
C4156       C  0.87070822  0.21774240  0.11555433    -0.18200
H4157       H  0.88895163  0.24890140  0.09711621     0.19800
H4158       H  0.83953874  0.26143324  0.14592116     0.18100
H4159       H  0.84805852  0.30050140  0.13612466     0.18100
H4160       H  0.87962247  0.20975154  0.10619249     0.13900
C4161       C  0.73018932  0.37275272  0.12140351     0.29400
C4162       C  0.74318697  0.38361228  0.11144490    -0.37000
C4163       C  0.76222850  0.37997046  0.11514869     0.15400
C4164       C  0.76836556  0.36659487  0.12775035     0.21200
C4165       C  0.75535589  0.35576063  0.13778987    -0.35100
C4166       C  0.73628382  0.35939636  0.13405292     0.15300
O4167       O  0.71163128  0.37342298  0.11983095    -0.27100
C4168       C  0.70578685  0.36026937  0.13170779     0.05100
C4169       C  0.72057746  0.35117989  0.14082316    -0.32000
O4170       O  0.78695252  0.36504098  0.12821056    -0.23800
C4171       C  0.79269321  0.37766354  0.11567639    -0.03800
C4172       C  0.77785738  0.38729638  0.10729967    -0.18200
H4173       H  0.73879861  0.39397857  0.10124994     0.19800
H4174       H  0.75975549  0.34500163  0.14756813     0.18100
H4175       H  0.71984412  0.33985217  0.15091095     0.18100
H4176       H  0.77849797  0.39783832  0.09638710     0.13900
C4177       C  0.88368253  0.48627855  0.12890772     0.29400
C4178       C  0.89340440  0.49952314  0.13953437    -0.37000
C4179       C  0.88899780  0.51843180  0.13595574     0.15400
C4180       C  0.87598495  0.52420879  0.12284449     0.21200
C4181       C  0.86608019  0.51094768  0.11238314    -0.35100
C4182       C  0.87050147  0.49202472  0.11595115     0.15300
O4183       O  0.88629780  0.46782949  0.12907805    -0.27100
C4184       C  0.87454500  0.46174818  0.11602350     0.05100
C4185       C  0.86442634  0.47623051  0.10753963    -0.32000
O4186       O  0.87531730  0.54272181  0.12080605    -0.23800
C4187       C  0.88808145  0.54877884  0.13289247    -0.03800
C4188       C  0.89680798  0.53423140  0.14268671    -0.18200
H4189       H  0.90410947  0.49543378  0.14946789     0.19800
H4190       H  0.85609483  0.51506648  0.10173883     0.18100
H4191       H  0.85438403  0.47528346  0.09624494     0.18100
H4192       H  0.90813424  0.53513539  0.15269706     0.13900
C4193       C  0.88514202  0.50704356  0.98566763     0.29400
C4194       C  0.87809434  0.50227645  0.00339656    -0.37000
C4195       C  0.88413415  0.48503045  0.01065296     0.15400
C4196       C  0.89657015  0.47348789  0.00120605     0.21200
C4197       C  0.90428429  0.47864929  0.98392956    -0.35100
C4198       C  0.89791621  0.49563818  0.97650627     0.15300
O4199       O  0.87835215  0.52026693  0.97468162    -0.27100
C4200       C  0.88684574  0.51718989  0.95837618     0.05100
C4201       C  0.89938367  0.50227918  0.95874723    -0.32000
O4202       O  0.89736450  0.45657962  0.00843117    -0.23800
C4203       C  0.88541281  0.45727417  0.02270410    -0.03800
C4204       C  0.87699328  0.47469611  0.02503687    -0.18200
H4205       H  0.86716344  0.51044642  0.01011082     0.19800
H4206       H  0.91301968  0.46913378  0.97590477     0.18100
H4207       H  0.90682150  0.49597495  0.94708120     0.18100
H4208       H  0.86560800  0.47843051  0.03439525     0.13900
C4209       C  0.98019707  0.39040777  0.12830482     0.29400
C4210       C  0.99360381  0.39968922  0.13925994    -0.37000
C4211       C  0.01257650  0.39637468  0.13458275     0.15400
C4212       C  0.01823045  0.38466465  0.12024151     0.21200
C4213       C  0.00484669  0.37523881  0.10944086    -0.35100
C4214       C  0.98590252  0.37862604  0.11404825     0.15300
O4215       O  0.96162127  0.39233628  0.12926526    -0.27100
C4216       C  0.95542092  0.38157184  0.11535660     0.05100
C4217       C  0.96999549  0.37273156  0.10564467    -0.32000
O4218       O  0.03673158  0.38443387  0.11774716    -0.23800
C4219       C  0.04300538  0.39620399  0.13074582    -0.03800
C4220       C  0.02852676  0.40393763  0.14151024    -0.18200
H4221       H  0.98955869  0.40928616  0.15029579     0.19800
H4222       H  0.00887227  0.36629822  0.09785875     0.18100
H4223       H  0.96902052  0.36369690  0.09352233     0.18100
H4224       H  0.02959274  0.41422221  0.15257816     0.13900
C4225       C  0.11926783  0.36475898  0.77734462     0.29400
C4226       C  0.12678020  0.35207457  0.76427226    -0.37000
C4227       C  0.12415413  0.35659874  0.74524114     0.15400
C4228       C  0.11494558  0.37256201  0.73923242     0.21200
C4229       C  0.10762704  0.38538339  0.75231423    -0.35100
C4230       C  0.11009074  0.38076336  0.77137708     0.15300
O4231       O  0.11862310  0.36251591  0.79582621    -0.27100
C4232       C  0.10886844  0.37732478  0.80177192     0.05100
C4233       C  0.10331272  0.38909102  0.78713363    -0.32000
O4234       O  0.11354459  0.37353261  0.72067008    -0.23800
C4235       C  0.12198481  0.35790220  0.71479123    -0.03800
C4236       C  0.12881392  0.34696985  0.72951698    -0.18200
H4237       H  0.13363190  0.33922206  0.76860986     0.19800
H4238       H  0.09999937  0.39778916  0.74796690     0.18100
H4239       H  0.09454952  0.40149626  0.78793284     0.18100
H4240       H  0.13606280  0.33362755  0.72872853     0.13900
C4241       C  0.10859449  0.26879998  0.88371765     0.29400
C4242       C  0.10483107  0.25063920  0.89060509    -0.37000
C4243       C  0.11044140  0.23560905  0.87912798     0.15400
C4244       C  0.11917503  0.23853394  0.86212917     0.21200
C4245       C  0.12306366  0.25663223  0.85533299    -0.35100
C4246       C  0.11750344  0.27161734  0.86678864     0.15300
O4247       O  0.10317121  0.28467512  0.89142517    -0.27100
C4248       C  0.10880427  0.29795938  0.87950489     0.05100
C4249       C  0.11796915  0.29065576  0.86386777    -0.32000
O4250       O  0.12317117  0.22277917  0.85350984    -0.23800
C4251       C  0.11703102  0.20933654  0.86493856    -0.03800
C4252       C  0.10885378  0.21646100  0.88124151    -0.18200
H4253       H  0.09764060  0.24843157  0.90379738     0.19800
H4254       H  0.12970946  0.25884571  0.84185760     0.18100
H4255       H  0.12283703  0.29807607  0.85155523     0.18100
H4256       H  0.10294478  0.20878886  0.89292159     0.13900
C4257       C  0.10602412  0.52300055  0.89236481     0.29400
C4258       C  0.09248470  0.50963474  0.88766577    -0.37000
C4259       C  0.09809794  0.49073464  0.88893302     0.15400
C4260       C  0.11580190  0.48511299  0.89436309     0.21200
C4261       C  0.12936397  0.49850123  0.89905469    -0.35100
C4262       C  0.12373136  0.51743477  0.89785300     0.15300
O4263       O  0.10348867  0.54141865  0.89334189    -0.27100
C4264       C  0.11986033  0.54774534  0.89951328     0.05100
C4265       C  0.13286795  0.53340192  0.90253745    -0.32000
O4266       O  0.11795204  0.46658363  0.89431309    -0.23800
C4267       C  0.10130934  0.46032539  0.88878307    -0.03800
C4268       C  0.08853924  0.47479417  0.88533148    -0.18200
H4269       H  0.07843558  0.51365527  0.88358028     0.19800
H4270       H  0.14327829  0.49446404  0.90355285     0.18100
H4271       H  0.14676898  0.53453271  0.90842805     0.18100
H4272       H  0.07425524  0.47369962  0.88041313     0.13900
C4273       C  0.99109211  0.47062641  0.90397308     0.29400
C4274       C  0.97429030  0.47688930  0.91194851    -0.37000
C4275       C  0.96775712  0.49426108  0.90561571     0.15400
C4276       C  0.97731293  0.50500365  0.89261706     0.21200
C4277       C  0.99465953  0.49918303  0.88541877    -0.35100
C4278       C  0.00099361  0.48157782  0.89143056     0.15300
O4279       O  0.99747175  0.45333036  0.90477357    -0.27100
C4280       C  0.01169187  0.45325923  0.89274866     0.05100
C4281       C  0.01476506  0.47047911  0.88425032    -0.32000
O4282       O  0.96685681  0.51856980  0.88563881    -0.23800
C4283       C  0.95050997  0.51637875  0.89425859    -0.03800
C4284       C  0.95035483  0.50176321  0.90708520    -0.18200
H4285       H  0.96586379  0.46793040  0.92081890     0.19800
H4286       H  0.00166476  0.50684459  0.87434973     0.18100
H4287       H  0.02436220  0.47372270  0.87293510     0.18100
H4288       H  0.93846014  0.49606400  0.91457855     0.13900
C4289       C  0.11733208  0.38948482  0.98909321     0.29400
C4290       C  0.12998014  0.39641179  0.00243060    -0.37000
C4291       C  0.12524821  0.39346992  0.02143252     0.15400
C4292       C  0.10920664  0.38438004  0.02716717     0.21200
C4293       C  0.09661552  0.37738155  0.01384083    -0.35100
C4294       C  0.10133972  0.38033903  0.99486211     0.15300
O4295       O  0.11875088  0.39075587  0.97049966    -0.27100
C4296       C  0.10337035  0.38226016  0.96434507     0.05100
C4297       C  0.09216138  0.37561783  0.97896508    -0.32000
O4298       O  0.10700810  0.38436161  0.04570627    -0.23800
C4299       C  0.12194097  0.39356008  0.05191399    -0.03800
C4300       C  0.13368571  0.39939282  0.03736967    -0.18200
H4301       H  0.14249625  0.40386376  0.99832379     0.19800
H4302       H  0.08380965  0.37043503  0.01794997     0.18100
H4303       H  0.07902300  0.36819706  0.97799074     0.18100
H4304       H  0.14620636  0.40780112  0.03837772     0.13900
C4305       C  0.99105860  0.39763098  0.97476522     0.29400
C4306       C  0.97420023  0.40586073  0.98047230    -0.37000
C4307       C  0.96719635  0.39982003  0.99772435     0.15400
C4308       C  0.97634679  0.38685199  0.00888509     0.21200
C4309       C  0.99370825  0.37922892  0.00353123    -0.35100
C4310       C  0.00054567  0.38497582  0.98601030     0.15300
O4311       O  0.99793122  0.39844291  0.95770883    -0.27100
C4312       C  0.01204575  0.38630012  0.95800545     0.05100
C4313       C  0.01460576  0.37767197  0.97528726    -0.32000
O4314       O  0.96568703  0.38074197  0.02269764    -0.23800
C4315       C  0.94962170  0.38991551  0.02022873    -0.03800
C4316       C  0.94983719  0.40212500  0.00509244    -0.18200
H4317       H  0.96617318  0.41488687  0.97125346     0.19800
H4318       H  0.00046819  0.36824912  0.01157273     0.18100
H4319       H  0.02405916  0.36628083  0.97877003     0.18100
H4320       H  0.93825956  0.41005444  0.99925177     0.13900
C4321       C  0.64119958  0.37776050  0.77448357     0.29400
C4322       C  0.64581859  0.37253929  0.75599067    -0.37000
C4323       C  0.63654726  0.38233924  0.74163596     0.15400
C4324       C  0.62362068  0.39626547  0.74541250     0.21200
C4325       C  0.61882142  0.40130431  0.76389813    -0.35100
C4326       C  0.62810749  0.39153573  0.77824271     0.15300
O4327       O  0.64908345  0.37126512  0.78983731    -0.27100
C4328       C  0.64095002  0.38083933  0.80371822     0.05100
C4329       C  0.62763477  0.39365410  0.79737463    -0.32000
O4330       O  0.61740382  0.40437967  0.73005965    -0.23800
C4331       C  0.62630491  0.39559467  0.71613068    -0.03800
C4332       C  0.63841244  0.38160325  0.72246352    -0.18200
H4333       H  0.65632235  0.36194901  0.75302606     0.19800
H4334       H  0.60891711  0.41245637  0.76685834     0.18100
H4335       H  0.61949151  0.40357623  0.80550983     0.18100
H4336       H  0.64765649  0.37274289  0.71427221     0.13900
C4337       C  0.74798404  0.47923823  0.87685306     0.29400
C4338       C  0.75367440  0.49645816  0.88423268    -0.37000
C4339       C  0.77091878  0.50316859  0.87773109     0.15400
C4340       C  0.78172584  0.49361359  0.86475319     0.21200
C4341       C  0.77580517  0.47670249  0.85698045    -0.35100
C4342       C  0.75869252  0.46992829  0.86361514     0.15300
O4343       O  0.73397714  0.46902329  0.88311305    -0.27100
C4344       C  0.73581487  0.45305158  0.87375777     0.05100
C4345       C  0.75078785  0.45288994  0.86129038    -0.32000
O4346       O  0.79848566  0.50085064  0.86274477    -0.23800
C4347       C  0.79838801  0.51528803  0.87443879    -0.03800
C4348       C  0.78155813  0.51759759  0.88400348    -0.18200
H4349       H  0.74591450  0.50340523  0.89529859     0.19800
H4350       H  0.78460860  0.46867529  0.84753275     0.18100
H4351       H  0.75610984  0.44126394  0.85308571     0.18100
H4352       H  0.77832354  0.52732786  0.89518785     0.13900
C4353       C  0.62496482  0.51818806  0.86596578     0.29400
C4354       C  0.61948835  0.49985143  0.86130955    -0.37000
C4355       C  0.62859350  0.48524393  0.87092273     0.15400
C4356       C  0.64219927  0.48865131  0.88412391     0.21200
C4357       C  0.64761250  0.50699385  0.88884751    -0.35100
C4358       C  0.63844600  0.52160152  0.87929401     0.15300
O4359       O  0.61868136  0.53370905  0.85819615    -0.27100
C4360       C  0.62805746  0.54739252  0.86663916     0.05100
C4361       C  0.64062480  0.54071890  0.88000480    -0.32000
O4362       O  0.64963077  0.47308742  0.89071531    -0.23800
C4363       C  0.64074124  0.45938151  0.88177822    -0.03800
C4364       C  0.62732785  0.46609313  0.86927769    -0.18200
H4365       H  0.60907415  0.49718253  0.85067133     0.19800
H4366       H  0.65847566  0.50964732  0.89903029     0.18100
H4367       H  0.65026660  0.54864915  0.88849985     0.18100
H4368       H  0.61859586  0.45815442  0.85985367     0.13900
C4369       C  0.64333397  0.37617011  0.99518461     0.29400
C4370       C  0.64872356  0.38081363  0.01357114    -0.37000
C4371       C  0.63897252  0.37188729  0.02814580     0.15400
C4372       C  0.62495295  0.35918573  0.02468982     0.21200
C4373       C  0.61945782  0.35463237  0.00627787    -0.35100
C4374       C  0.62917997  0.36363037  0.99167910     0.15300
O4375       O  0.65109309  0.38245805  0.97967666    -0.27100
C4376       C  0.64188254  0.37401310  0.96586621     0.05100
C4377       C  0.62794316  0.36208295  0.97247466    -0.32000
O4378       O  0.61827650  0.35181559  0.04024841    -0.23800
C4379       C  0.62794227  0.35992781  0.05397029    -0.03800
C4380       C  0.64106417  0.37266098  0.04728558    -0.18200
H4381       H  0.65997739  0.39050899  0.01629033     0.19800
H4382       H  0.60857569  0.34452289  0.00355402     0.18100
H4383       H  0.61867614  0.35328649  0.96443080     0.18100
H4384       H  0.65108107  0.38069581  0.05522774     0.13900
C4385       C  0.74483575  0.37160352  0.98784341     0.29400
C4386       C  0.75066952  0.37994501  0.00462468    -0.37000
C4387       C  0.76829446  0.37426615  0.01126518     0.15400
C4388       C  0.77918119  0.36103554  0.00214316     0.21200
C4389       C  0.77298618  0.35210501  0.98593924    -0.35100
C4390       C  0.75562915  0.35802328  0.97912576     0.15300
O4391       O  0.73111983  0.37769691  0.97705700    -0.27100
C4392       C  0.73330680  0.36791873  0.96135196     0.05100
C4393       C  0.74806621  0.35524147  0.96198578    -0.32000
O4394       O  0.79633476  0.36013455  0.00866338    -0.23800
C4395       C  0.79648525  0.37277808  0.02224078    -0.03800
C4396       C  0.77938327  0.38188422  0.02473683    -0.18200
H4397       H  0.74292197  0.39137337  0.01098061     0.19800
H4398       H  0.78193267  0.34260461  0.97813242     0.18100
H4399       H  0.75379317  0.34693531  0.95062354     0.18100
H4400       H  0.77619538  0.39360611  0.03382736     0.13900
C4401       C  0.64141088  0.26818735  0.88431200     0.29400
C4402       C  0.64592973  0.24982087  0.87858892    -0.37000
C4403       C  0.63777530  0.23526744  0.88899373     0.15400
C4404       C  0.62607241  0.23876223  0.90400968     0.21200
C4405       C  0.62151181  0.25711092  0.90968771    -0.35100
C4406       C  0.62955759  0.27165156  0.89921725     0.15300
O4407       O  0.64821853  0.28370227  0.87713269    -0.27100
C4408       C  0.64060225  0.29739531  0.88738031     0.05100
C4409       C  0.62870991  0.29076008  0.90134709    -0.32000
O4410       O  0.62013613  0.22326728  0.91194688    -0.23800
C4411       C  0.62797135  0.20951762  0.90196114    -0.03800
C4412       C  0.63920303  0.21611356  0.88741246    -0.18200
H4413       H  0.65534885  0.24710103  0.86697808     0.19800
H4414       H  0.61244694  0.25982778  0.92157735     0.18100
H4415       H  0.62138697  0.29869371  0.91203494     0.18100
H4416       H  0.64721055  0.20808099  0.87730128     0.13900
C4417       C  0.01237571  0.12844559  0.86573398     0.29400
C4418       C  0.99403935  0.12339370  0.86077234    -0.37000
C4419       C  0.97953863  0.13316033  0.86981280     0.15400
C4420       C  0.98304023  0.14697515  0.88278548     0.21200
C4421       C  0.00139071  0.15195260  0.88785649    -0.35100
C4422       C  0.01590436  0.14212202  0.87885213     0.15300
O4423       O  0.02781538  0.12177675  0.85818680    -0.27100
C4424       C  0.04154601  0.13110925  0.86654134     0.05100
C4425       C  0.03502820  0.14397663  0.87969867    -0.32000
O4426       O  0.96755752  0.15489721  0.88891975    -0.23800
C4427       C  0.95386459  0.14607142  0.87992548    -0.03800
C4428       C  0.96044078  0.13229028  0.86780180    -0.18200
H4429       H  0.99130787  0.11285252  0.85026991     0.19800
H4430       H  0.00412597  0.16299175  0.89783414     0.18100
H4431       H  0.04304660  0.15378277  0.88791978     0.18100
H4432       H  0.95246182  0.12343839  0.85852518     0.13900
C4433       C  0.87026641  0.14049277  0.02699515     0.29400
C4434       C  0.88189147  0.14888940  0.01345635    -0.37000
C4435       C  0.87718456  0.14558261  0.99454511     0.15400
C4436       C  0.86215613  0.13478588  0.98915260     0.21200
C4437       C  0.85069719  0.12631290  0.00263830    -0.35100
C4438       C  0.85535803  0.12963715  0.02144806     0.15300
O4439       O  0.87133058  0.14223008  0.04555809    -0.27100
C4440       C  0.85682855  0.13226584  0.05178475     0.05100
C4441       C  0.84659460  0.12421901  0.03732735    -0.32000
O4442       O  0.85949076  0.13471844  0.97074448    -0.23800
C4443       C  0.87306027  0.14563413  0.96422437    -0.03800
C4444       C  0.88447112  0.15262845  0.97842870    -0.18200
H4445       H  0.89345288  0.15779248  0.01733794     0.19800
H4446       H  0.83860544  0.11813517  0.99876721     0.18100
H4447       H  0.83407387  0.11579599  0.03836504     0.18100
H4448       H  0.89593170  0.16240585  0.97710833     0.13900
C4449       C  0.85657892  0.26401478  0.97509737     0.29400
C4450       C  0.84912021  0.28126387  0.98051918    -0.37000
C4451       C  0.85541491  0.28814990  0.99761674     0.15400
C4452       C  0.86807750  0.27867875  0.00883572     0.21200
C4453       C  0.87512689  0.26103227  0.00366115    -0.35100
C4454       C  0.86895570  0.25418622  0.98634236     0.15300
O4455       O  0.85486435  0.25665726  0.95838661    -0.27100
C4456       C  0.86612499  0.24185318  0.95887473     0.05100
C4457       C  0.87513845  0.23938106  0.97595714    -0.32000
O4458       O  0.87414192  0.28910638  0.02276151    -0.23800
C4459       C  0.86517209  0.30529552  0.02027167    -0.03800
C4460       C  0.85322745  0.30542042  0.00501679    -0.18200
H4461       H  0.84020318  0.28944223  0.97133173     0.19800
H4462       H  0.88574304  0.25386093  0.01181452     0.18100
H4463       H  0.88595406  0.22930047  0.97950793     0.18100
H4464       H  0.84541212  0.31711263  0.99923061     0.13900
C4465       C  0.97737198  0.25047299  0.87685655     0.29400
C4466       C  0.99460088  0.25606939  0.88432367    -0.37000
C4467       C  0.00193988  0.27277509  0.87708392     0.15400
C4468       C  0.99297230  0.28309523  0.86332740     0.21200
C4469       C  0.97616336  0.27716966  0.85542933    -0.35100
C4470       C  0.96874251  0.26069170  0.86281891     0.15300
O4471       O  0.96646673  0.23725331  0.88367534    -0.27100
C4472       C  0.95078477  0.23917508  0.87384331     0.05100
C4473       C  0.95147584  0.25335852  0.86057746    -0.32000
O4474       O  0.00035538  0.29971979  0.86092130    -0.23800
C4475       C  0.01432600  0.30005598  0.87311530    -0.03800
C4476       C  0.01622208  0.28359922  0.88339754    -0.18200
H4477       H  0.00100038  0.24880982  0.89602368     0.19800
H4478       H  0.96855907  0.28569815  0.84541735     0.18100
H4479       H  0.94025021  0.25861653  0.85181043     0.18100
H4480       H  0.02536840  0.28088531  0.89518153     0.13900
C4481       C  0.77118003  0.25171733  0.89310879     0.29400
C4482       C  0.75325772  0.25666336  0.88681351    -0.37000
C4483       C  0.74609485  0.27365890  0.89356823     0.15400
C4484       C  0.75581086  0.28481555  0.90596235     0.21200
C4485       C  0.77331160  0.27945349  0.91292875    -0.35100
C4486       C  0.78062799  0.26271752  0.90584397     0.15300
O4487       O  0.78195180  0.23858893  0.88578031    -0.27100
C4488       C  0.79840311  0.24131857  0.89391604     0.05100
C4489       C  0.79836511  0.25593959  0.90668185    -0.32000
O4490       O  0.74850878  0.30166356  0.90743111    -0.23800
C4491       C  0.73392554  0.30127842  0.89596628    -0.03800
C4492       C  0.73147246  0.28415028  0.88719760    -0.18200
H4493       H  0.74625928  0.24882752  0.87594749     0.19800
H4494       H  0.78150639  0.28866645  0.92166121     0.18100
H4495       H  0.81015881  0.26185732  0.91405587     0.18100
H4496       H  0.72184781  0.28076689  0.87602869     0.13900
C4497       C  0.76245309  0.14954856  0.88345579     0.29400
C4498       C  0.74399368  0.15511779  0.87911629    -0.37000
C4499       C  0.72960061  0.14417138  0.88679281     0.15400
C4500       C  0.73329612  0.12885365  0.89801494     0.21200
C4501       C  0.75176050  0.12315862  0.90218306    -0.35100
C4502       C  0.76615763  0.13410903  0.89450206     0.15300
O4503       O  0.77784176  0.15822246  0.87828977    -0.27100
C4504       C  0.79172954  0.14831355  0.88601739     0.05100
C4505       C  0.78531169  0.13302601  0.89629915    -0.32000
O4506       O  0.71790477  0.12145853  0.90490873    -0.23800
C4507       C  0.70404610  0.13197015  0.89797007    -0.03800
C4508       C  0.71045702  0.14632429  0.88643153    -0.18200
H4509       H  0.74107676  0.16741928  0.87070245     0.19800
H4510       H  0.75466305  0.11130844  0.91122639     0.18100
H4511       H  0.79345497  0.12287155  0.90413237     0.18100
H4512       H  0.70237054  0.15734118  0.87978760     0.13900
C4513       C  0.88896274  0.13488669  0.77772050     0.29400
C4514       C  0.90123548  0.12653097  0.76467203    -0.37000
C4515       C  0.89714871  0.12964090  0.74556929     0.15400
C4516       C  0.88204294  0.14016239  0.73951155     0.21200
C4517       C  0.86975144  0.14842768  0.75254383    -0.35100
C4518       C  0.87384921  0.14536281  0.77161690     0.15300
O4519       O  0.89062186  0.13482525  0.79630559    -0.27100
C4520       C  0.87630036  0.14543654  0.80211422     0.05100
C4521       C  0.86548118  0.15221162  0.78729935    -0.32000
O4522       O  0.88105400  0.14139864  0.72093146    -0.23800
C4523       C  0.89579098  0.13149634  0.71500789    -0.03800
C4524       C  0.90621449  0.12394162  0.72978301    -0.18200
H4525       H  0.91333360  0.11845981  0.76906961     0.19800
H4526       H  0.85795692  0.15693679  0.74814693     0.18100
H4527       H  0.85356315  0.16164023  0.78797607     0.18100
H4528       H  0.91876437  0.11538249  0.72897568     0.13900
C4529       C  0.86652027  0.52242110  0.64531645     0.29400
C4530       C  0.87818132  0.50900960  0.65385363    -0.37000
C4531       C  0.87390387  0.49010911  0.65030429     0.15400
C4532       C  0.85921202  0.48449936  0.63914994     0.21200
C4533       C  0.84762065  0.49791305  0.63050697    -0.35100
C4534       C  0.85188846  0.51681521  0.63408139     0.15300
O4535       O  0.86744724  0.54094016  0.64717670    -0.27100
C4536       C  0.85313900  0.54720929  0.63693417     0.05100
C4537       C  0.84312799  0.53275668  0.62853900    -0.32000
O4538       O  0.85723163  0.46598049  0.63871601    -0.23800
C4539       C  0.87093822  0.45972179  0.64976788    -0.03800
C4540       C  0.88166130  0.47417220  0.65719615    -0.18200
H4541       H  0.88956091  0.51298570  0.66297251     0.19800
H4542       H  0.83582061  0.49393165  0.62194026     0.18100
H4543       H  0.83082079  0.53385155  0.61976552     0.18100
H4544       H  0.89316477  0.47309104  0.66699949     0.13900
C4545       C  0.77384945  0.38253526  0.75770658     0.29400
C4546       C  0.75658857  0.37494586  0.76322430    -0.37000
C4547       C  0.74951673  0.38113318  0.78053008     0.15400
C4548       C  0.75874704  0.39406428  0.79146133     0.21200
C4549       C  0.77561493  0.40207762  0.78567927    -0.35100
C4550       C  0.78278394  0.39570643  0.76859353     0.15300
O4551       O  0.78444794  0.37658149  0.74373077    -0.27100
C4552       C  0.80027217  0.38606742  0.74581509     0.05100
C4553       C  0.79995212  0.39829428  0.76089692    -0.32000
O4554       O  0.75130000  0.39581584  0.80822336    -0.23800
C4555       C  0.73703306  0.38400775  0.80807157    -0.03800
C4556       C  0.73503428  0.37460014  0.79115353    -0.18200
H4557       H  0.74990607  0.36394051  0.75532178     0.19800
H4558       H  0.78336501  0.41148630  0.79460547     0.18100
H4559       H  0.81132849  0.40659347  0.76636850     0.18100
H4560       H  0.72545087  0.36340850  0.78783310     0.13900
C4561       C  0.73049095  0.38390365  0.64798559     0.29400
C4562       C  0.74408328  0.37290298  0.65715280    -0.37000
C4563       C  0.76295820  0.37726902  0.65324992     0.15400
C4564       C  0.76833164  0.39144164  0.64121818     0.21200
C4565       C  0.75477290  0.40239426  0.63206735    -0.35100
C4566       C  0.73595352  0.39802192  0.63594376     0.15300
O4567       O  0.71193725  0.38277312  0.64980113    -0.27100
C4568       C  0.70556550  0.39642866  0.63868045     0.05100
C4569       C  0.71997060  0.40619766  0.62982192    -0.32000
O4570       O  0.78681291  0.39350971  0.64025425    -0.23800
C4571       C  0.79335066  0.38040188  0.65186361    -0.03800
C4572       C  0.77908815  0.36996708  0.66021852    -0.18200
H4573       H  0.74026365  0.36189323  0.66686188     0.19800
H4574       H  0.75859191  0.41375447  0.62277118     0.18100
H4575       H  0.71882066  0.41801706  0.62034964     0.18100
H4576       H  0.78043222  0.35887310  0.67050659     0.13900
C4577       C  0.85716204  0.47117032  0.76528234     0.29400
C4578       C  0.84884048  0.47728220  0.78192212    -0.37000
C4579       C  0.85509580  0.49445716  0.78867084     0.15400
C4580       C  0.86853037  0.50504091  0.77961646     0.21200
C4581       C  0.87639036  0.49920608  0.76256899    -0.35100
C4582       C  0.87023588  0.48189641  0.75587326     0.15300
O4583       O  0.85560852  0.45429813  0.75824710    -0.27100
C4584       C  0.86764454  0.45428654  0.74405947     0.05100
C4585       C  0.87702538  0.47109378  0.74170888    -0.32000
O4586       O  0.87462688  0.51889374  0.79006502    -0.23800
C4587       C  0.86492845  0.51706241  0.80587494    -0.03800
C4588       C  0.85239782  0.50231318  0.80569955    -0.18200
H4589       H  0.83934056  0.46853323  0.78985910     0.19800
H4590       H  0.88761217  0.50683974  0.75583425     0.18100
H4591       H  0.88839379  0.47422318  0.73214568     0.18100
H4592       H  0.84406702  0.49693975  0.81720421     0.13900
C4593       C  0.01784860  0.37162354  0.64429074     0.29400
C4594       C  0.00442662  0.38522047  0.64926292    -0.37000
C4595       C  0.98556460  0.38033649  0.64636849     0.15400
C4596       C  0.98012619  0.36332465  0.63906282     0.21200
C4597       C  0.99351547  0.34981776  0.63403054    -0.35100
C4598       C  0.01230061  0.35464353  0.63702820     0.15300
O4599       O  0.03635491  0.37303973  0.64563629    -0.27100
C4600       C  0.04257950  0.35663600  0.63917634     0.05100
C4601       C  0.02817554  0.34475739  0.63378056    -0.32000
O4602       O  0.96171055  0.36109975  0.63909162    -0.23800
C4603       C  0.95526098  0.37696046  0.64648112    -0.03800
C4604       C  0.96949224  0.38939727  0.65114208    -0.18200
H4605       H  0.00835405  0.39851860  0.65529123     0.19800
H4606       H  0.98956661  0.33627237  0.62859257     0.18100
H4607       H  0.02929303  0.33087581  0.62778104     0.18100
H4608       H  0.96819867  0.40265126  0.65839275     0.13900
C4609       C  0.00336421  0.36844014  0.77852109     0.29400
C4610       C  0.99830427  0.37551785  0.76085615    -0.37000
C4611       C  0.98050998  0.37042050  0.75440133     0.15400
C4612       C  0.96875648  0.35890050  0.76457372     0.21200
C4613       C  0.97407889  0.35125707  0.78177018    -0.35100
C4614       C  0.99164883  0.35653147  0.78828681     0.15300
O4615       O  0.01735423  0.37440353  0.78891464    -0.27100
C4616       C  0.01443124  0.36613312  0.80537369     0.05100
C4617       C  0.99889633  0.35460082  0.80565598    -0.32000
O4618       O  0.95180995  0.35828083  0.75763211    -0.23800
C4619       C  0.95261385  0.36940568  0.74275528    -0.03800
C4620       C  0.97015731  0.37724469  0.73982762    -0.18200
H4621       H  0.00685506  0.38563586  0.75350689     0.19800
H4622       H  0.96447904  0.34316190  0.79027220     0.18100
H4623       H  0.99256795  0.34768754  0.81760754     0.18100
H4624       H  0.97414529  0.38770662  0.72958832     0.13900
C4625       C  0.89577890  0.28472347  0.76521958     0.29400
C4626       C  0.90349233  0.27859730  0.78215237    -0.37000
C4627       C  0.89678365  0.26154448  0.78897669     0.15400
C4628       C  0.88356275  0.25103212  0.77966676     0.21200
C4629       C  0.87643997  0.25679760  0.76228579    -0.35100
C4630       C  0.88295464  0.27403181  0.75557222     0.15300
O4631       O  0.89745446  0.30167040  0.75821972    -0.27100
C4632       C  0.88572800  0.30178197  0.74382665     0.05100
C4633       C  0.87648776  0.28492830  0.74130410    -0.32000
O4634       O  0.87672804  0.23748944  0.79019992    -0.23800
C4635       C  0.88570835  0.23944044  0.80635409    -0.03800
C4636       C  0.89854792  0.25394433  0.80629314    -0.18200
H4637       H  0.91272037  0.28735037  0.79030175     0.19800
H4638       H  0.86532622  0.24926954  0.75536396     0.18100
H4639       H  0.86527892  0.28185805  0.73162339     0.18100
H4640       H  0.90644802  0.25938550  0.81799123     0.13900
C4641       C  0.88362038  0.23458812  0.64430633     0.29400
C4642       C  0.87063513  0.24807943  0.65062996    -0.37000
C4643       C  0.87575447  0.26699213  0.64823140     0.15400
C4644       C  0.89242703  0.27247570  0.64011688     0.21200
C4645       C  0.90535989  0.25899222  0.63372873    -0.35100
C4646       C  0.90028359  0.24010935  0.63621008     0.15300
O4647       O  0.88197008  0.21604885  0.64533161    -0.27100
C4648       C  0.89789007  0.20968877  0.63777925     0.05100
C4649       C  0.90967573  0.22409897  0.63194695    -0.32000
O4650       O  0.89479054  0.29094108  0.64039620    -0.23800
C4651       C  0.87934154  0.29736940  0.64880637    -0.03800
C4652       C  0.86712046  0.28303343  0.65390128    -0.18200
H4653       H  0.85759561  0.24414162  0.65728731     0.19800
H4654       H  0.91866297  0.26291464  0.62760852     0.18100
H4655       H  0.92330979  0.22291429  0.62534771     0.18100
H4656       H  0.85410115  0.28423632  0.66164235     0.13900
C4657       C  0.60617815  0.76785288  0.88067151     0.29400
C4658       C  0.60138116  0.74962534  0.88634839    -0.37000
C4659       C  0.61126693  0.73500236  0.87769463     0.15400
C4660       C  0.62488893  0.73829679  0.86436223     0.21200
C4661       C  0.62980385  0.75654789  0.85879523    -0.35100
C4662       C  0.61991900  0.77119002  0.86747545     0.15300
O4663       O  0.59818858  0.78335952  0.88653103    -0.27100
C4664       C  0.60687478  0.79695361  0.87716740     0.05100
C4665       C  0.62064763  0.79027237  0.86501940    -0.32000
O4666       O  0.63158073  0.72270433  0.85722717    -0.23800
C4667       C  0.62226405  0.70916604  0.86605510    -0.03800
C4668       C  0.60943834  0.71592980  0.87911928    -0.18200
H4669       H  0.59041094  0.74705087  0.89652229     0.19800
H4670       H  0.64030690  0.75909852  0.84813252     0.18100
H4671       H  0.62949525  0.79816659  0.85557245     0.18100
H4672       H  0.59967456  0.70808526  0.88765483     0.13900
C4673       C  0.61012816  0.87284385  0.73852419     0.29400
C4674       C  0.59955585  0.88285282  0.75188594    -0.37000
C4675       C  0.60349304  0.87897712  0.77088811     0.15400
C4676       C  0.61691268  0.86620407  0.77659178     0.21200
C4677       C  0.62750602  0.85623805  0.76324460    -0.35100
C4678       C  0.62354806  0.86008959  0.74426276     0.15300
O4679       O  0.60829855  0.87354641  0.71994877    -0.27100
C4680       C  0.62078638  0.86101077  0.71376060     0.05100
C4681       C  0.63059909  0.85237385  0.72834682    -0.32000
O4682       O  0.61785099  0.86448367  0.79515321    -0.23800
C4683       C  0.60478668  0.87636547  0.80141244    -0.03800
C4684       C  0.59551597  0.88566959  0.78687077    -0.18200
H4685       H  0.58876275  0.89273912  0.74779074     0.19800
H4686       H  0.63791175  0.84594281  0.76734043     0.18100
H4687       H  0.64111457  0.84142382  0.72736278     0.18100
H4688       H  0.58420064  0.89578037  0.78794592     0.13900
C4689       C  0.61038624  0.98808100  0.88135995     0.29400
C4690       C  0.60554531  0.00642846  0.87567359    -0.37000
C4691       C  0.61443188  0.02114225  0.88514728     0.15400
C4692       C  0.62726070  0.01782646  0.89917653     0.21200
C4693       C  0.63230906  0.99947651  0.90466470    -0.35100
C4694       C  0.62336301  0.98476200  0.89525050     0.15300
O4695       O  0.60259240  0.97252250  0.87542722    -0.27100
C4696       C  0.61064377  0.95887145  0.88544698     0.05100
C4697       C  0.62385965  0.96565248  0.89802372    -0.32000
O4698       O  0.63289010  0.03342670  0.90713746    -0.23800
C4699       C  0.62368135  0.04709185  0.89819553    -0.03800
C4700       C  0.61199983  0.04028439  0.88418459    -0.18200
H4701       H  0.59503040  0.00903012  0.86507319     0.19800
H4702       H  0.64204102  0.99688889  0.91599150     0.18100
H4703       H  0.63178518  0.95786314  0.90836771     0.18100
H4704       H  0.60252217  0.04812575  0.87528342     0.13900
C4705       C  0.61125511  0.88593087  0.02738064     0.29400
C4706       C  0.60152736  0.87513213  0.01422004    -0.37000
C4707       C  0.60631412  0.87797990  0.99524544     0.15400
C4708       C  0.61967298  0.89058977  0.98932443     0.21200
C4709       C  0.62942896  0.90138248  0.00249730    -0.35100
C4710       C  0.62464398  0.89852691  0.02149014     0.15300
O4711       O  0.60886080  0.88585525  0.04589618    -0.27100
C4712       C  0.62094678  0.89863485  0.05190918     0.05100
C4713       C  0.63099176  0.90690489  0.03726988    -0.32000
O4714       O  0.62115878  0.89151362  0.97072478    -0.23800
C4715       C  0.60854893  0.87922658  0.96472530    -0.03800
C4716       C  0.59908335  0.87044921  0.97944699    -0.18200
H4717       H  0.59077110  0.86535842  0.01842587     0.19800
H4718       H  0.63981442  0.91153403  0.99825592     0.18100
H4719       H  0.64143947  0.91778998  0.03814495     0.18100
H4720       H  0.58785851  0.86036401  0.97859460     0.13900
C4721       C  0.37053779  0.76887529  0.11575831     0.29400
C4722       C  0.37547787  0.75057569  0.11017290    -0.37000
C4723       C  0.36696630  0.73587498  0.12004374     0.15400
C4724       C  0.35437076  0.73914268  0.13436174     0.21200
C4725       C  0.34949707  0.75748909  0.14003229    -0.35100
C4726       C  0.35808471  0.77223003  0.13017911     0.15300
O4727       O  0.37651671  0.78443361  0.10798111    -0.27100
C4728       C  0.36797758  0.79817558  0.11741324     0.05100
C4729       C  0.35624646  0.79144003  0.13154634    -0.32000
O4730       O  0.34735196  0.72348256  0.14107951    -0.23800
C4731       C  0.35557236  0.70988056  0.13112900    -0.03800
C4732       C  0.36804656  0.71676139  0.11778706    -0.18200
H4733       H  0.38510001  0.74801333  0.09869340     0.19800
H4734       H  0.33945555  0.76005574  0.15114508     0.18100
H4735       H  0.34744452  0.79938591  0.14105115     0.18100
H4736       H  0.37604665  0.70896892  0.10748339     0.13900
C4737       C  0.26677192  0.86794446  0.12612986     0.29400
C4738       C  0.25330866  0.85996175  0.13806534    -0.37000
C4739       C  0.23442840  0.86294657  0.13310948     0.15400
C4740       C  0.22891708  0.87305235  0.11752646     0.21200
C4741       C  0.24236864  0.88107245  0.10563375    -0.35100
C4742       C  0.26123206  0.87806070  0.11056958     0.15300
O4743       O  0.28530678  0.86673536  0.12777800    -0.27100
C4744       C  0.29163208  0.87625815  0.11299069     0.05100
C4745       C  0.27721097  0.88348229  0.10191330    -0.32000
O4746       O  0.21047618  0.87298774  0.11497786    -0.23800
C4747       C  0.20414459  0.86269864  0.12921590    -0.03800
C4748       C  0.21846799  0.85622383  0.14085599    -0.18200
H4749       H  0.25724226  0.85169903  0.15018176     0.19800
H4750       H  0.23844830  0.88879034  0.09315986     0.18100
H4751       H  0.27836329  0.89162200  0.08914088     0.18100
H4752       H  0.21732505  0.84696079  0.15283836     0.13900
C4753       C  0.51752552  0.88504474  0.12186689     0.29400
C4754       C  0.50425269  0.87612958  0.11056308    -0.37000
C4755       C  0.48530298  0.87997220  0.11465132     0.15400
C4756       C  0.47946286  0.89169816  0.12889854     0.21200
C4757       C  0.49276697  0.90056000  0.14032226    -0.35100
C4758       C  0.51177361  0.89673020  0.13619784     0.15300
O4759       O  0.53603963  0.88450931  0.11971140    -0.27100
C4760       C  0.54224322  0.89601726  0.13293462     0.05100
C4761       C  0.52770960  0.90384176  0.14358242    -0.32000
O4762       O  0.46086832  0.89346455  0.12979347    -0.23800
C4763       C  0.45483207  0.88264557  0.11584618    -0.03800
C4764       C  0.46951599  0.87406458  0.10609143    -0.18200
H4765       H  0.50838737  0.86714510  0.09905346     0.19800
H4766       H  0.48864601  0.91007763  0.15140076     0.18100
H4767       H  0.52872321  0.91416849  0.15461992     0.18100
H4768       H  0.46866735  0.86475986  0.09416533     0.13900
C4769       C  0.47874380  0.87975946  0.01296459     0.29400
C4770       C  0.49572966  0.87158182  0.00713493    -0.37000
C4771       C  0.50372795  0.87911993  0.99079535     0.15400
C4772       C  0.49561253  0.89383784  0.98109828     0.21200
C4773       C  0.47906455  0.90237727  0.98725609    -0.35100
C4774       C  0.47095174  0.89466413  0.00330196     0.15300
O4775       O  0.46728816  0.87303902  0.02584110    -0.27100
C4776       C  0.45207460  0.88376968  0.02421936     0.05100
C4777       C  0.45363381  0.89752203  0.01058087    -0.32000
O4778       O  0.50338329  0.89660051  0.96464263    -0.23800
C4779       C  0.51674639  0.88365338  0.96373542    -0.03800
C4780       C  0.51788323  0.87249550  0.97970021    -0.18200
H4781       H  0.50143826  0.85923510  0.01390770     0.19800
H4782       H  0.47210860  0.91317471  0.97912998     0.18100
H4783       H  0.44293232  0.90713596  0.00565085     0.18100
H4784       H  0.52638774  0.86007567  0.98185335     0.13900
C4785       C  0.38292552  0.98603701  0.12739179     0.29400
C4786       C  0.38812092  0.99954782  0.14063574    -0.37000
C4787       C  0.38506476  0.01838892  0.13551502     0.15400
C4788       C  0.37748571  0.02381051  0.11855015     0.21200
C4789       C  0.37219148  0.01031388  0.10535935    -0.35100
C4790       C  0.37528403  0.99149764  0.11047307     0.15300
O4791       O  0.38448297  0.96752641  0.12910603    -0.27100
C4792       C  0.37774138  0.96113908  0.11296075     0.05100
C4793       C  0.37195975  0.97550497  0.10095341    -0.32000
O4794       O  0.37752464  0.04225778  0.11608089    -0.23800
C4795       C  0.38516585  0.04869605  0.13178277    -0.03800
C4796       C  0.38994391  0.03443130  0.14430338    -0.18200
H4797       H  0.39444699  0.99569331  0.15386996     0.19800
H4798       H  0.36650227  0.01418842  0.09184103     0.18100
H4799       H  0.36579668  0.97429715  0.08716159     0.18100
H4800       H  0.39737718  0.03566428  0.15744453     0.13900
C4801       C  0.26227198  0.11235397  0.88513742     0.29400
C4802       C  0.24381202  0.10934271  0.89165030    -0.37000
C4803       C  0.22922316  0.11554797  0.87988170     0.15400
C4804       C  0.23278050  0.12414129  0.86293722     0.21200
C4805       C  0.25118603  0.12727054  0.85650770    -0.35100
C4806       C  0.26573446  0.12114286  0.86827231     0.15300
O4807       O  0.27783534  0.10649876  0.89325193    -0.27100
C4808       C  0.29156821  0.11177572  0.88165275     0.05100
C4809       C  0.28485084  0.12109226  0.86584784    -0.32000
O4810       O  0.21730724  0.12874288  0.85402146    -0.23800
C4811       C  0.20342841  0.12309455  0.86520980    -0.03800
C4812       C  0.20999256  0.11469918  0.88163088    -0.18200
H4813       H  0.24104284  0.10231501  0.90481773     0.19800
H4814       H  0.25394703  0.13383025  0.84309703     0.18100
H4815       H  0.29272394  0.12591089  0.85379777     0.18100
H4816       H  0.20189446  0.10903858  0.89314730     0.13900
C4817       C  0.35548295  0.13195601  0.74568548     0.29400
C4818       C  0.35053440  0.13685796  0.76422322    -0.37000
C4819       C  0.35942297  0.12665078  0.77857992     0.15400
C4820       C  0.37227598  0.11268291  0.77471137     0.21200
C4821       C  0.37736175  0.10795972  0.75625083    -0.35100
C4822       C  0.36848796  0.11809890  0.74194363     0.15300
O4823       O  0.34786918  0.13864932  0.73025220    -0.27100
C4824       C  0.35609331  0.12907183  0.71638867     0.05100
C4825       C  0.36920914  0.11612722  0.72282146    -0.32000
O4826       O  0.37816774  0.10415769  0.78993063    -0.23800
C4827       C  0.36916724  0.11266978  0.80393372    -0.03800
C4828       C  0.35725745  0.12693656  0.79777294    -0.18200
H4829       H  0.34005349  0.14746805  0.76719752     0.19800
H4830       H  0.38716125  0.09672253  0.75326491     0.18100
H4831       H  0.37724688  0.10607381  0.71474464     0.18100
H4832       H  0.34796650  0.13567118  0.80604648     0.13900
C4833       C  0.51704986  0.11498110  0.88765059     0.29400
C4834       C  0.50376745  0.10391876  0.87834361    -0.37000
C4835       C  0.48477710  0.10746048  0.88273099     0.15400
C4836       C  0.47897724  0.12097074  0.89531994     0.21200
C4837       C  0.49224328  0.13211155  0.90452790    -0.35100
C4838       C  0.51122764  0.12854672  0.90016916     0.15300
O4839       O  0.53564167  0.11331694  0.88670108    -0.27100
C4840       C  0.54177185  0.12608332  0.89881674     0.05100
C4841       C  0.52711077  0.13592950  0.90739017    -0.32000
O4842       O  0.46045174  0.12144225  0.89763299    -0.23800
C4843       C  0.45433009  0.10797557  0.88631461    -0.03800
C4844       C  0.46892452  0.09892525  0.87680439    -0.18200
H4845       H  0.50792951  0.09298190  0.86868319     0.19800
H4846       H  0.48810886  0.14257649  0.91470951     0.18100
H4847       H  0.52803246  0.14651063  0.91819002     0.18100
H4848       H  0.46797876  0.08741972  0.86700043     0.13900
C4849       C  0.47504563  0.00349211  0.88878445     0.29400
C4850       C  0.49295320  0.99837711  0.88236361    -0.37000
C4851       C  0.50061639  0.98206236  0.89030271     0.15400
C4852       C  0.49131074  0.97163096  0.90371579     0.21200
C4853       C  0.47374291  0.97705464  0.91052802    -0.35100
C4854       C  0.46602670  0.99315882  0.90245641     0.15300
O4855       O  0.46411801  0.01654642  0.88147422    -0.27100
C4856       C  0.44800505  0.01439095  0.89061427     0.05100
C4857       C  0.44843651  0.00019417  0.90389092    -0.32000
O4858       O  0.49938759  0.95536189  0.90689115    -0.23800
C4859       C  0.51413011  0.95538423  0.89553301    -0.03800
C4860       C  0.51582705  0.97172601  0.88505791    -0.18200
H4861       H  0.49978303  0.00574836  0.87099192     0.19800
H4862       H  0.46596691  0.96846102  0.92031388     0.18100
H4863       H  0.43700908  0.99494416  0.91237916     0.18100
H4864       H  0.52554679  0.97459594  0.87374643     0.13900
C4865       C  0.37228893  0.10956761  0.99460680     0.29400
C4866       C  0.36680982  0.10541188  0.01315972    -0.37000
C4867       C  0.37674030  0.11450487  0.02744166     0.15400
C4868       C  0.39107357  0.12677059  0.02353366     0.21200
C4869       C  0.39642438  0.13104922  0.00500136    -0.35100
C4870       C  0.38647157  0.12202071  0.99074444     0.15300
O4871       O  0.36556011  0.10191084  0.97928734    -0.27100
C4872       C  0.37538887  0.10959096  0.96534066     0.05100
C4873       C  0.38860821  0.12233769  0.97160812    -0.32000
O4874       O  0.39910554  0.13305311  0.03882845    -0.23800
C4875       C  0.38986681  0.12488252  0.05288306    -0.03800
C4876       C  0.37565396  0.11316401  0.04666279    -0.18200
H4877       H  0.35584036  0.09546167  0.01622574     0.19800
H4878       H  0.40784456  0.14048269  0.00194386     0.18100
H4879       H  0.39876917  0.13003080  0.96340791     0.18100
H4880       H  0.36637190  0.10453515  0.05496982     0.13900
C4881       C  0.39455563  0.99496899  0.97641084     0.29400
C4882       C  0.40312992  0.97836584  0.98247336    -0.37000
C4883       C  0.39718118  0.97154592  0.99987959     0.15400
C4884       C  0.38399688  0.98068102  0.01082603     0.21200
C4885       C  0.37607618  0.99777824  0.00514471    -0.35100
C4886       C  0.38171452  0.00439023  0.98751345     0.15300
O4887       O  0.39524798  0.00163111  0.95921794    -0.27100
C4888       C  0.38283953  0.01555935  0.95933469     0.05100
C4889       C  0.37416490  0.01813842  0.97660572    -0.32000
O4890       O  0.37776388  0.97010156  0.02462009    -0.23800
C4891       C  0.38701167  0.95405317  0.02239356    -0.03800
C4892       C  0.39951474  0.95424094  0.00746020    -0.18200
H4893       H  0.41231410  0.97032793  0.97340506     0.19800
H4894       H  0.36489819  0.00443868  0.01301859     0.18100
H4895       H  0.36262761  0.02745184  0.98001202     0.18100
H4896       H  0.40744671  0.94260628  0.00172124     0.13900
C4897       C  0.37588257  0.64618519  0.77415041     0.29400
C4898       C  0.37010630  0.65014754  0.75566419    -0.37000
C4899       C  0.38054872  0.64167082  0.74122280     0.15400
C4900       C  0.39559972  0.63006257  0.74488957     0.21200
C4901       C  0.40124087  0.62591835  0.76337771    -0.35100
C4902       C  0.39080774  0.63441453  0.77782287     0.15300
O4903       O  0.36871877  0.65346798  0.78956185    -0.27100
C4904       C  0.37897700  0.64624498  0.80344990     0.05100
C4905       C  0.39297362  0.63416415  0.79698594    -0.32000
O4906       O  0.40389085  0.62423094  0.72942910    -0.23800
C4907       C  0.39411373  0.63209310  0.71553806    -0.03800
C4908       C  0.37929483  0.64311257  0.72202932    -0.18200
H4909       H  0.35852855  0.65955815  0.75275773     0.19800
H4910       H  0.41320667  0.61700098  0.76626433     0.18100
H4911       H  0.40359402  0.62693196  0.80507378     0.18100
H4912       H  0.36938835  0.65125665  0.71389578     0.13900
C4913       C  0.47712947  0.75222839  0.87427504     0.29400
C4914       C  0.49476262  0.75739211  0.88113013    -0.37000
C4915       C  0.50117187  0.77512167  0.87563117     0.15400
C4916       C  0.49100645  0.78681401  0.86396732     0.21200
C4917       C  0.47380795  0.78133714  0.85649512    -0.35100
C4918       C  0.46728749  0.76380299  0.86222480     0.15300
O4919       O  0.46695293  0.73808442  0.88037666    -0.27100
C4920       C  0.45047677  0.74071302  0.87209864     0.05100
C4921       C  0.44998602  0.75630771  0.86045283    -0.32000
O4922       O  0.49788682  0.80384195  0.86318162    -0.23800
C4923       C  0.51272103  0.80307004  0.87433839    -0.03800
C4924       C  0.51565743  0.78549663  0.88227650    -0.18200
H4925       H  0.50215708  0.74894524  0.89135975     0.19800
H4926       H  0.46530270  0.79080561  0.84819238     0.18100
H4927       H  0.43800841  0.76233382  0.85331985     0.18100
H4928       H  0.52580905  0.78152759  0.89282445     0.13900
C4929       C  0.48101292  0.63391196  0.87097279     0.29400
C4930       C  0.49431241  0.62644436  0.85852671    -0.37000
C4931       C  0.51316597  0.63018111  0.86263168     0.15400
C4932       C  0.51886036  0.64042848  0.87795409     0.21200
C4933       C  0.50554096  0.64783090  0.89049330    -0.35100
C4934       C  0.48662942  0.64413754  0.88635150     0.15300
O4935       O  0.46254275  0.63359068  0.86893952    -0.27100
C4936       C  0.45625352  0.64375025  0.88327590     0.05100
C4937       C  0.47064994  0.65046201  0.89456987    -0.32000
O4938       O  0.53737105  0.64225287  0.87882103    -0.23800
C4939       C  0.54347738  0.63302064  0.86375855    -0.03800
C4940       C  0.52896912  0.62537807  0.85327270    -0.18200
H4941       H  0.49025016  0.61868485  0.84619138     0.19800
H4942       H  0.50957544  0.65622970  0.90240877     0.18100
H4943       H  0.46951877  0.65984324  0.90643021     0.18100
H4944       H  0.52995489  0.61723911  0.84051302     0.13900
C4945       C  0.37033157  0.64154944  0.02879202     0.29400
C4946       C  0.37893428  0.65328121  0.01554646    -0.37000
C4947       C  0.37611188  0.64869182  0.99658040     0.15400
C4948       C  0.36565546  0.63359174  0.99077032     0.21200
C4949       C  0.35722033  0.62173380  0.00402663    -0.35100
C4950       C  0.35996409  0.62637344  0.02300842     0.15300
O4951       O  0.36985638  0.64398470  0.04726024    -0.27100
C4952       C  0.35900835  0.63011218  0.05333783     0.05100
C4953       C  0.35261650  0.61877965  0.03882504    -0.32000
O4954       O  0.36424602  0.63251822  0.97220954    -0.23800
C4955       C  0.37399237  0.64719400  0.96613693    -0.03800
C4956       C  0.38163470  0.65759862  0.98073898    -0.18200
H4957       H  0.38679786  0.66549199  0.01968935     0.19800
H4958       H  0.34864017  0.61002735  0.99986262     0.18100
H4959       H  0.34306066  0.60709841  0.03974413     0.18100
H4960       H  0.38984808  0.67026408  0.97980196     0.13900
C4961       C  0.35582453  0.76123478  0.97735226     0.29400
C4962       C  0.34804963  0.77832345  0.98299452    -0.37000
C4963       C  0.35390738  0.78497006  0.00039481     0.15400
C4964       C  0.36633759  0.77533317  0.01173050     0.21200
C4965       C  0.37357247  0.75780301  0.00637143    -0.35100
C4966       C  0.36798141  0.75128280  0.98871726     0.15300
O4967       O  0.35491434  0.75437946  0.96032649    -0.27100
C4968       C  0.36653442  0.73981647  0.96070265     0.05100
C4969       C  0.37490389  0.73696810  0.97805807    -0.32000
O4970       O  0.37237354  0.78564810  0.02577887    -0.23800
C4971       C  0.36367909  0.80198785  0.02328892    -0.03800
C4972       C  0.35185704  0.80226846  0.00789220    -0.18200
H4973       H  0.33942218  0.78668487  0.97369510     0.19800
H4974       H  0.38412342  0.75060280  0.01458291     0.18100
H4975       H  0.38585028  0.72705305  0.98167124     0.18100
H4976       H  0.34439660  0.81412459  0.00197241     0.13900
C4977       C  0.26982749  0.63367242  0.89974663     0.29400
C4978       C  0.25651942  0.62459953  0.91108141    -0.37000
C4979       C  0.23756808  0.62751780  0.90629879     0.15400
C4980       C  0.23187817  0.63857514  0.89144246     0.21200
C4981       C  0.24516645  0.64760880  0.88011762    -0.35100
C4982       C  0.26408407  0.64468522  0.88488355     0.15300
O4983       O  0.28833077  0.63364015  0.90201232    -0.27100
C4984       C  0.29442824  0.64480242  0.88831713     0.05100
C4985       C  0.27989239  0.65195099  0.87734841    -0.32000
O4986       O  0.21335432  0.63970951  0.88987352    -0.23800
C4987       C  0.20711271  0.62917570  0.90396491    -0.03800
C4988       C  0.22160831  0.62130201  0.91453622    -0.18200
H4989       H  0.26060190  0.61610034  0.92298416     0.19800
H4990       H  0.24106273  0.65654910  0.86854926     0.18100
H4991       H  0.28082251  0.66172902  0.86576389     0.18100
H4992       H  0.22050900  0.61243396  0.92681820     0.13900
C4993       C  0.13033150  0.98384240  0.86761331     0.29400
C4994       C  0.12036813  0.99712220  0.85697617    -0.37000
C4995       C  0.12398753  0.01606979  0.86100442     0.15400
C4996       C  0.13649891  0.02180565  0.87451792     0.21200
C4997       C  0.14647179  0.00854582  0.88511349    -0.35100
C4998       C  0.14284891  0.98962503  0.88109542     0.15300
O4999       O  0.12959536  0.96529139  0.86601520    -0.27100
C5000       C  0.14185157  0.95922024  0.87873524     0.05100
C5001       C  0.15039739  0.97381062  0.88840025    -0.32000
O5002       O  0.13789764  0.04032433  0.87561313    -0.23800
C5003       C  0.12607037  0.04647734  0.86256089    -0.03800
C5004       C  0.11712668  0.03196243  0.85313237    -0.18200
H5005       H  0.11061873  0.99301492  0.84617703     0.19800
H5006       H  0.15651077  0.01265654  0.89564272     0.18100
H5007       H  0.16105770  0.97288220  0.89913063     0.18100
H5008       H  0.10711351  0.03300008  0.84180480     0.13900
C5009       C  0.12308219  0.86110646  0.02257990     0.29400
C5010       C  0.11788777  0.85642528  0.00416305    -0.37000
C5011       C  0.12786738  0.86527535  0.98971688     0.15400
C5012       C  0.14194543  0.87787185  0.99334622     0.21200
C5013       C  0.14700621  0.88271236  0.01177015    -0.35100
C5014       C  0.13704105  0.87383633  0.02621739     0.15300
O5015       O  0.11630357  0.85362627  0.03799103    -0.27100
C5016       C  0.12585762  0.86165011  0.05180133     0.05100
C5017       C  0.13899532  0.87447994  0.04536180    -0.32000
O5018       O  0.15013150  0.88376403  0.97792048    -0.23800
C5019       C  0.14125696  0.87496365  0.96410939    -0.03800
C5020       C  0.12712300  0.86325701  0.97057754    -0.18200
H5021       H  0.10714243  0.84620083  0.00133072     0.19800
H5022       H  0.15826921  0.89236335  0.01461007     0.18100
H5023       H  0.14897237  0.88242128  0.05344903     0.18100
H5024       H  0.11813346  0.85420222  0.96250608     0.13900
C5025       C  0.27160486  0.87363946  0.01022856     0.29400
C5026       C  0.25426439  0.88113066  0.00465103    -0.37000
C5027       C  0.24698107  0.87410145  0.98784832     0.15400
C5028       C  0.25608223  0.86047761  0.97744746     0.21200
C5029       C  0.27295853  0.85249640  0.98339731    -0.35100
C5030       C  0.28036463  0.85972796  0.99993699     0.15300
O5031       O  0.28249376  0.88036516  0.02348101    -0.27100
C5032       C  0.29832690  0.87063291  0.02150964     0.05100
C5033       C  0.29772122  0.85748835  0.00725672    -0.32000
O5034       O  0.24883404  0.85838911  0.96069575    -0.23800
C5035       C  0.23483080  0.87066287  0.96034661    -0.03800
C5036       C  0.23273428  0.88064772  0.97693952    -0.18200
H5037       H  0.24777166  0.89275901  0.01196179     0.19800
H5038       H  0.28065942  0.84260822  0.97479660     0.18100
H5039       H  0.30902180  0.84877612  0.00197421     0.18100
H5040       H  0.22352065  0.89243231  0.97968979     0.13900
C5041       C  0.27727513  0.99771797  0.86482668     0.29400
C5042       C  0.27091641  0.98139529  0.85632395    -0.37000
C5043       C  0.25416480  0.97425909  0.86333801     0.15400
C5044       C  0.24412350  0.98267221  0.87765669     0.21200
C5045       C  0.25014531  0.99948850  0.88571826    -0.35100
C5046       C  0.26710319  0.00655985  0.87879684     0.15300
O5047       O  0.29411032  0.00468611  0.86271547    -0.27100
C5048       C  0.29471416  0.01828686  0.87529922     0.05100
C5049       C  0.27825852  0.02035134  0.88556594    -0.32000
O5050       O  0.23080549  0.97175442  0.88425820    -0.23800
C5051       C  0.23250127  0.95630854  0.87399154    -0.03800
C5052       C  0.24656002  0.95720376  0.86061832    -0.18200
H5053       H  0.27932084  0.97384784  0.84614879     0.19800
H5054       H  0.24302982  0.00568641  0.89762863     0.18100
H5055       H  0.27569154  0.02930209  0.89754313     0.18100
H5056       H  0.25175825  0.94609183  0.85165834     0.13900
C5057       C  0.25842597  0.78609430  0.90504233     0.29400
C5058       C  0.27533651  0.78009184  0.91295745    -0.37000
C5059       C  0.28170688  0.76237625  0.90741972     0.15400
C5060       C  0.27195782  0.75111090  0.89516356     0.21200
C5061       C  0.25454162  0.75676647  0.88796596    -0.35100
C5062       C  0.24832776  0.77468907  0.89321825     0.15300
O5063       O  0.25190641  0.80336461  0.90545011    -0.27100
C5064       C  0.23738800  0.80303447  0.89386782     0.05100
C5065       C  0.23428578  0.78552144  0.88604323    -0.32000
O5066       O  0.28219425  0.73695544  0.88894477    -0.23800
C5067       C  0.29861666  0.73925804  0.89733711    -0.03800
C5068       C  0.29898356  0.75460957  0.90924105    -0.18200
H5069       H  0.28385692  0.78934602  0.92132323     0.19800
H5070       H  0.24728783  0.74859274  0.87752942     0.18100
H5071       H  0.22434231  0.78183276  0.87526202     0.18100
H5072       H  0.31095032  0.76047181  0.91637767     0.13900
C5073       C  0.14865371  0.76755771  0.88690514     0.29400
C5074       C  0.15528837  0.74931760  0.88322980    -0.37000
C5075       C  0.14373749  0.73460449  0.88911196     0.15400
C5076       C  0.12690960  0.73782942  0.89811221     0.21200
C5077       C  0.12023266  0.75608236  0.90170758    -0.35100
C5078       C  0.13176439  0.77079856  0.89577788     0.15300
O5079       O  0.15724148  0.78317934  0.88252663    -0.27100
C5080       C  0.14583803  0.79674151  0.88859222     0.05100
C5081       C  0.12967689  0.78990963  0.89707743    -0.32000
O5082       O  0.11902226  0.72221943  0.90374296    -0.23800
C5083       C  0.13072683  0.70868758  0.89819345    -0.03800
C5084       C  0.14640006  0.71552731  0.88884036    -0.18200
H5085       H  0.16865942  0.74680642  0.87646631     0.19800
H5086       H  0.10712036  0.75859371  0.90896060     0.18100
H5087       H  0.11807759  0.79776350  0.90298998     0.18100
H5088       H  0.15853858  0.70779614  0.88393143     0.13900
C5089       C  0.12398653  0.89376949  0.74316780     0.29400
C5090       C  0.11862369  0.89856249  0.76160411    -0.37000
C5091       C  0.12841780  0.88956700  0.77615467     0.15400
C5092       C  0.14250955  0.87676626  0.77260378     0.21200
C5093       C  0.14775182  0.87185675  0.75416364    -0.35100
C5094       C  0.13795514  0.88084114  0.73961012     0.15300
O5095       O  0.11734063  0.90126698  0.72767473    -0.27100
C5096       C  0.12697938  0.89307225  0.71384227     0.05100
C5097       C  0.14006075  0.88009733  0.72041876    -0.32000
O5098       O  0.15056460  0.87078210  0.78809336    -0.23800
C5099       C  0.14159645  0.87970951  0.80191018    -0.03800
C5100       C  0.12751063  0.89159885  0.79533001    -0.18200
H5101       H  0.10786605  0.90894843  0.76437673     0.19800
H5102       H  0.15902694  0.86203877  0.75138533     0.18100
H5103       H  0.15010230  0.87198202  0.71239419     0.18100
H5104       H  0.11851055  0.90085658  0.80335102     0.13900
C5105       C  0.39096616  0.73917251  0.63409773     0.29400
C5106       C  0.39529963  0.75755691  0.62835446    -0.37000
C5107       C  0.38613204  0.77213276  0.63796980     0.15400
C5108       C  0.37354959  0.76867197  0.65223404     0.21200
C5109       C  0.36904638  0.75026985  0.65784035    -0.35100
C5110       C  0.37823896  0.73568301  0.64822781     0.15300
O5111       O  0.39877051  0.72369980  0.62769164    -0.27100
C5112       C  0.39097476  0.70993625  0.63764490     0.05100
C5113       C  0.37794253  0.71654338  0.65067749    -0.32000
O5114       O  0.36737244  0.78422804  0.66005024    -0.23800
C5115       C  0.37598241  0.79797649  0.65075417    -0.03800
C5116       C  0.38782610  0.79128849  0.63669750    -0.18200
H5117       H  0.40551537  0.76028965  0.61746163     0.19800
H5118       H  0.35940271  0.74755474  0.66924937     0.18100
H5119       H  0.37006439  0.70857807  0.66089849     0.18100
H5120       H  0.39681543  0.79924909  0.62744416     0.13900
C5121       C  0.51279925  0.86218557  0.63208310     0.29400
C5122       C  0.49433478  0.85768517  0.62690687    -0.37000
C5123       C  0.47993093  0.86689930  0.63675484     0.15400
C5124       C  0.48361918  0.87968979  0.65068865     0.21200
C5125       C  0.50208751  0.88440818  0.65566519    -0.35100
C5126       C  0.51649552  0.87514913  0.64585364     0.15300
O5127       O  0.52817366  0.85423495  0.62557893    -0.27100
C5128       C  0.54204469  0.86218056  0.63512469     0.05100
C5129       C  0.53563660  0.87545801  0.64794780    -0.32000
O5130       O  0.46822808  0.88572363  0.65896726    -0.23800
C5131       C  0.45436997  0.87682690  0.65028296    -0.03800
C5132       C  0.46079335  0.86494571  0.63617101    -0.18200
H5133       H  0.49142671  0.84724874  0.61634860     0.19800
H5134       H  0.50499241  0.89417609  0.66684791     0.18100
H5135       H  0.54373517  0.88345530  0.65787883     0.18100
H5136       H  0.45269656  0.85569827  0.62739750     0.13900
C5137       C  0.37565350  0.77768404  0.75781475     0.29400
C5138       C  0.36791492  0.76066206  0.76371512    -0.37000
C5139       C  0.37495561  0.75340874  0.78055905     0.15400
C5140       C  0.38874319  0.76228098  0.79072799     0.21200
C5141       C  0.39680587  0.77894705  0.78458797    -0.35100
C5142       C  0.38964298  0.78626821  0.76794952     0.15300
O5143       O  0.36931623  0.78836985  0.74414174    -0.27100
C5144       C  0.37939360  0.80385850  0.74570930     0.05100
C5145       C  0.39232800  0.80329693  0.76012470    -0.32000
O5146       O  0.39133104  0.75472051  0.80727908    -0.23800
C5147       C  0.37922436  0.74074317  0.80770147    -0.03800
C5148       C  0.36874845  0.73903550  0.79142981    -0.18200
H5149       H  0.35631114  0.75427391  0.75645151     0.19800
H5150       H  0.40692323  0.78642398  0.79295315     0.18100
H5151       H  0.40126018  0.81443071  0.76507766     0.18100
H5152       H  0.35712514  0.72975941  0.78877372     0.13900
C5153       C  0.48753448  0.86512538  0.79474338     0.29400
C5154       C  0.47059041  0.85727254  0.78913123    -0.37000
C5155       C  0.46391337  0.86309200  0.77167691     0.15400
C5156       C  0.47333696  0.87564041  0.76034941     0.21200
C5157       C  0.49062494  0.88310531  0.76576125    -0.35100
C5158       C  0.49722948  0.87743632  0.78338577     0.15300
O5159       O  0.49492397  0.86350436  0.81149194    -0.27100
C5160       C  0.50961052  0.87477398  0.81086819     0.05100
C5161       C  0.51190724  0.88374212  0.79371492    -0.32000
O5162       O  0.46321932  0.88112258  0.74588946    -0.23800
C5163       C  0.44721340  0.87194980  0.74809546    -0.03800
C5164       C  0.44693641  0.86039014  0.76375029    -0.18200
H5165       H  0.46253146  0.84828328  0.79830882     0.19800
H5166       H  0.49775366  0.89356660  0.75742641     0.18100
H5167       H  0.52203113  0.89433099  0.78993187     0.18100
H5168       H  0.43530792  0.85245668  0.76935152     0.13900
C5169       C  0.35352985  0.01933774  0.63508850     0.29400
C5170       C  0.34939114  0.00097851  0.62919900    -0.37000
C5171       C  0.35883461  0.98639155  0.63855199     0.15400
C5172       C  0.37140722  0.98984506  0.65273368     0.21200
C5173       C  0.37564806  0.00818165  0.65851394    -0.35100
C5174       C  0.36627329  0.02274976  0.64912617     0.15300
O5175       O  0.34574498  0.03486951  0.62876818    -0.27100
C5176       C  0.35363333  0.04852847  0.63869139     0.05100
C5177       C  0.36662524  0.04182824  0.65161499    -0.32000
O5178       O  0.37801969  0.97432004  0.66020709    -0.23800
C5179       C  0.36974319  0.96057349  0.65076828    -0.03800
C5180       C  0.35762953  0.96722315  0.63696917    -0.18200
H5181       H  0.33924554  0.99827175  0.61831351     0.19800
H5182       H  0.38535269  0.01086106  0.66980319     0.18100
H5183       H  0.37462230  0.04971949  0.66171246     0.18100
H5184       H  0.34882712  0.95921658  0.62767003     0.13900
C5185       C  0.36301620  0.98268943  0.75515971     0.29400
C5186       C  0.36962112  0.00036326  0.76051588    -0.37000
C5187       C  0.36339219  0.00691990  0.77801597     0.15400
C5188       C  0.35125903  0.99684866  0.78924930     0.21200
C5189       C  0.34408111  0.97963702  0.78357197    -0.35100
C5190       C  0.35053275  0.97298582  0.76632360     0.15300
O5191       O  0.36968950  0.97233604  0.74131863    -0.27100
C5192       C  0.36130025  0.95593014  0.74376751     0.05100
C5193       C  0.34907789  0.95563998  0.75891642    -0.32000
O5194       O  0.34992094  0.00365568  0.80628140    -0.23800
C5195       C  0.36122166  0.01831867  0.80604085    -0.03800
C5196       C  0.36977976  0.02129234  0.78875506    -0.18200
H5197       H  0.38020172  0.00764607  0.75246801     0.19800
H5198       H  0.33549396  0.97118456  0.79278384     0.18100
H5199       H  0.34172038  0.94375900  0.76477348     0.18100
H5200       H  0.38065990  0.03122239  0.78530342     0.13900
C5201       C  0.24498078  0.88696417  0.77938412     0.29400
C5202       C  0.25060296  0.87924993  0.76219258    -0.37000
C5203       C  0.26739302  0.88610853  0.75472688     0.15400
C5204       C  0.27772410  0.89984703  0.76347388     0.21200
C5205       C  0.27167127  0.90814268  0.78016603    -0.35100
C5206       C  0.25515009  0.90102161  0.78781099     0.15300
O5207       O  0.23210756  0.88000314  0.79062941    -0.27100
C5208       C  0.23419112  0.88968058  0.80636640     0.05100
C5209       C  0.24807981  0.90312162  0.80534294    -0.32000
O5210       O  0.29452521  0.90166285  0.75618367    -0.23800
C5211       C  0.29492621  0.88911177  0.74250740    -0.03800
C5212       C  0.27837587  0.87917829  0.74070446    -0.18200
H5213       H  0.24343627  0.86744789  0.75606519     0.19800
H5214       H  0.28025942  0.91805309  0.78766176     0.18100
H5215       H  0.25350839  0.91171644  0.81654392     0.18100
H5216       H  0.27567964  0.86721089  0.73184542     0.13900
C5217       C  0.23348020  0.89689531  0.63239351     0.29400
C5218       C  0.25181965  0.90208181  0.62730384    -0.37000
C5219       C  0.26643778  0.89273342  0.63662151     0.15400
C5220       C  0.26303559  0.87924936  0.65003991     0.21200
C5221       C  0.24469209  0.87394272  0.65502539    -0.35100
C5222       C  0.23007228  0.88327320  0.64567458     0.15300
O5223       O  0.21793692  0.90456005  0.62607368    -0.27100
C5224       C  0.20424398  0.89578197  0.63524146     0.05100
C5225       C  0.21092994  0.88224291  0.64766074    -0.32000
O5226       O  0.27857474  0.87296510  0.65771497    -0.23800
C5227       C  0.29225582  0.88236511  0.64914332    -0.03800
C5228       C  0.28555969  0.89490554  0.63574177    -0.18200
H5229       H  0.25446880  0.91297357  0.61707778     0.19800
H5230       H  0.24203362  0.86355509  0.66576504     0.18100
H5231       H  0.20298578  0.87352628  0.65718882     0.18100
H5232       H  0.29346269  0.90462772  0.62721783     0.13900
loop_ 
_geom_bond_atom_site_label_1 
_geom_bond_atom_site_label_2 
_geom_bond_distance 
_geom_bond_site_symmetry_2 
_ccdc_geom_bond_type 
N1            N2   1.316       .  A
N1            N7   1.311       .  A
N1          Mn30   2.176       .  S
N2            C9   1.349       .  A
N3            N5   1.311       .  A
N3            N4   1.320       .  A
N3          Mn19   2.181       .  S
N4           C10   1.351       .  A
N5            N6   1.314       .  A
N5          Mn30   2.169       .  S
N6           C10   1.348       .  A
N7            N8   1.320       .  A
N7          Mn19   2.185       .  S
N8            C9   1.352       .  A
C9         C5211   1.456       .  S
C10        C5144   1.452       .  S
N11          N17   1.319       .  A
N11          N12   1.336       .  A
N11         Mn41   2.290       .  S
N12          C20   1.369       .  A
N13          N14   1.310       .  A
N13          N15   1.318       .  A
N13         Mn19   2.153       .  S
N14          C21   1.337       .  A
N15          N16   1.336       .  A
N15         Mn41   2.284       .  S
N16          C21   1.369       .  A
N17          N18   1.312       .  A
N17         Mn19   2.161       .  S
N18          C20   1.339       .  A
Mn19        Cl43   2.529       .  S
C20        C5115   1.483       .  S
C21        C5227   1.479       .  S
N22          N23   1.316       .  A
N22          N28   1.312       .  A
N22         Mn30   2.175       .  S
N23          C31   1.349       .  A
N24          N26   1.311       .  A
N24          N25   1.323       .  A
N24         Mn42   2.201       .  S
N25          C32   1.355       .  A
N26          N27   1.314       .  A
N26         Mn30   2.168       .  S
N27          C32   1.348       .  A
N28          N29   1.322       .  A
N28         Mn42   2.196       .  S
N29          C31   1.353       .  A
Mn30        Cl43   2.552       .  S
C31        C5163   1.460       .  S
C32        C5192   1.461       .  S
N33          N34   1.335       .  A
N33          N39   1.319       .  A
N33         Mn41   2.283       .  S
N34          C44   1.368       .  A
N35          N36   1.313       .  A
N35          N37   1.320       .  A
N35         Mn42   2.170       .  S
N36          C45   1.341       .  A
N37          N38   1.334       .  A
N37         Mn41   2.282       .  S
N38          C45   1.367       .  A
N39          N40   1.311       .  A
N39         Mn42   2.161       .  S
N40          C44   1.339       .  A
Mn41        Cl43   2.568       .  S
Mn42        Cl43   2.530       .  S
C44        C5179   1.479       .  S
C45        C5131   1.480       .  S
N46          N47   1.320       .  A
N46          N52   1.312       .  A
N46         Mn75   2.182       .  S
N47          C54   1.350       .  A
N48          N50   1.312       .  A
N48          N49   1.319       .  A
N48         Mn64   2.184       .  S
N49          C55   1.350       .  A
N50          N51   1.321       .  A
N50         Mn75   2.197       .  S
N51          C55   1.353       .  A
N52          N53   1.318       .  A
N52         Mn64   2.188       .  S
N53          C54   1.351       .  A
C54        C5208   1.458       .  S
C55        C5064   1.464       .  S
N56          N62   1.312       .  A
N56          N57   1.320       .  A
N56         Mn86   2.179       .  S
N57          C65   1.350       .  A
N58          N59   1.316       .  A
N58          N60   1.311       .  A
N58         Mn64   2.182       .  S
N59          C66   1.350       .  A
N60          N61   1.320       .  A
N60         Mn86   2.177       .  S
N61          C66   1.350       .  A
N62          N63   1.318       .  A
N62         Mn64   2.190       .  S
N63          C65   1.351       .  A
Mn64        Cl88   2.558       .  S
C65        C5035   1.458       .  S
C66        C5051   1.455       .  S
N67          N68   1.309       .  A
N67          N73   1.319       .  A
N67         Mn75   2.155       .  S
N68          C76   1.338       .  A
N69          N71   1.319       .  A
N69          N70   1.335       .  A
N69         Mn87   2.279       .  S
N70          C77   1.368       .  A
N71          N72   1.313       .  A
N71         Mn75   2.171       .  S
N72          C77   1.341       .  A
N73          N74   1.334       .  A
N73         Mn87   2.278       .  S
N74          C76   1.368       .  A
Mn75        Cl88   2.521       .  S
C76        C5080   1.475       .  S
C77        C5099   1.483       .  S
N78          N79   1.308       .  A
N78          N84   1.318       .  A
N78         Mn86   2.150       .  S
N79          C89   1.338       .  A
N80          N81   1.335       .  A
N80          N82   1.318       .  A
N80         Mn87   2.280       .  S
N81          C90   1.368       .  A
N82          N83   1.310       .  A
N82         Mn86   2.151       .  S
N83          C90   1.338       .  A
N84          N85   1.337       .  A
N84         Mn87   2.285       .  S
N85          C89   1.370       .  A
Mn86        Cl88   2.524       .  S
Mn87        Cl88   2.572       .  S
C89        C5000   1.483       .  S
C90        C5019   1.476       .  S
N91          N92   1.323       .  A
N91          N97   1.312       .  A
N91        Mn120   2.201       .  S
N92          C99   1.354       .  A
N93          N95   1.310       .  A
N93          N94   1.316       .  A
N93        Mn109   2.176       .  S
N94         C100   1.349       .  A
N95          N96   1.322       .  A
N95        Mn120   2.189       .  S
N96         C100   1.353       .  A
N97          N98   1.316       .  A
N97        Mn109   2.180       .  S
N98          C99   1.350       .  A
C99        C4920   1.464       .  S
C100       C4968   1.460       .  S
N101        N107   1.312       .  A
N101        N102   1.323       .  A
N101       Mn131   2.205       .  S
N102        C110   1.355       .  A
N103        N104   1.315       .  A
N103        N105   1.311       .  A
N103       Mn109   2.174       .  S
N104        C111   1.348       .  A
N105        N106   1.320       .  A
N105       Mn131   2.178       .  S
N106        C111   1.351       .  A
N107        N108   1.316       .  A
N107       Mn109   2.178       .  S
N108        C110   1.349       .  A
Mn109      Cl133   2.554       .  S
C110       C5067   1.464       .  S
C111       C5147   1.452       .  S
N112        N113   1.309       .  A
N112        N118   1.319       .  A
N112       Mn120   2.162       .  S
N113        C121   1.340       .  A
N114        N116   1.319       .  A
N114        N115   1.334       .  A
N114       Mn132   2.278       .  S
N115        C122   1.367       .  A
N116        N117   1.310       .  A
N116       Mn120   2.156       .  S
N117        C122   1.339       .  A
N118        N119   1.335       .  A
N118       Mn132   2.282       .  S
N119        C121   1.369       .  A
Mn120      Cl133   2.528       .  S
C121       C4955   1.483       .  S
C122       C4936   1.479       .  S
N123        N124   1.314       .  A
N123        N129   1.320       .  A
N123       Mn131   2.177       .  S
N124        C134   1.342       .  A
N125        N126   1.336       .  A
N125        N127   1.318       .  A
N125       Mn132   2.286       .  S
N126        C135   1.369       .  A
N127        N128   1.309       .  A
N127       Mn131   2.150       .  S
N128        C135   1.339       .  A
N129        N130   1.335       .  A
N129       Mn132   2.286       .  S
N130        C134   1.368       .  A
Mn131      Cl133   2.531       .  S
Mn132      Cl133   2.567       .  S
C134       C4904   1.484       .  S
C135       C4984   1.484       .  S
N136        N137   1.319       .  A
N136        N142   1.312       .  A
N136       Mn165   2.181       .  S
N137        C144   1.350       .  A
N138        N140   1.313       .  A
N138        N139   1.319       .  A
N138       Mn154   2.190       .  S
N139        C145   1.351       .  A
N140        N141   1.320       .  A
N140       Mn165   2.192       .  S
N141        C145   1.352       .  A
N142        N143   1.317       .  A
N142       Mn154   2.181       .  S
N143        C144   1.350       .  A
C144       C5048   1.454       .  S
C145       C4888   1.461       .  S
N146        N152   1.312       .  A
N146        N147   1.322       .  A
N146       Mn176   2.190       .  S
N147        C155   1.352       .  A
N148        N149   1.317       .  A
N148        N150   1.312       .  A
N148       Mn154   2.187       .  S
N149        C156   1.350       .  A
N150        N151   1.321       .  A
N150       Mn176   2.190       .  S
N151        C156   1.352       .  A
N152        N153   1.316       .  A
N152       Mn154   2.180       .  S
N153        C155   1.350       .  A
Mn154      Cl178   2.555       .  S
C155       C4856   1.460       .  S
C156       C5195   1.460       .  S
N157        N158   1.312       .  A
N157        N163   1.318       .  A
N157       Mn165   2.159       .  S
N158        C166   1.340       .  A
N159        N161   1.319       .  A
N159        N160   1.335       .  A
N159       Mn177   2.288       .  S
N160        C167   1.368       .  A
N161        N162   1.314       .  A
N161       Mn165   2.169       .  S
N162        C167   1.341       .  A
N163        N164   1.333       .  A
N163       Mn177   2.274       .  S
N164        C166   1.366       .  A
Mn165      Cl178   2.531       .  S
C166       C4872   1.477       .  S
C167       C4808   1.484       .  S
N168        N169   1.310       .  A
N168        N174   1.318       .  A
N168       Mn176   2.163       .  S
N169        C179   1.340       .  A
N170        N171   1.337       .  A
N170        N172   1.319       .  A
N170       Mn177   2.294       .  S
N171        C180   1.370       .  A
N172        N173   1.311       .  A
N172       Mn176   2.164       .  S
N173        C180   1.341       .  A
N174        N175   1.334       .  A
N174       Mn177   2.269       .  S
N175        C179   1.366       .  A
Mn176      Cl178   2.529       .  S
Mn177      Cl178   2.568       .  S
C179       C4827   1.476       .  S
C180       C4843   1.490       .  S
N181        N182   1.323       .  A
N181        N187   1.312       .  A
N181       Mn210   2.202       .  S
N182        C189   1.354       .  A
N183        N185   1.311       .  A
N183        N184   1.317       .  A
N183       Mn199   2.182       .  S
N184        C190   1.350       .  A
N185        N186   1.321       .  A
N185       Mn210   2.186       .  S
N186        C190   1.351       .  A
N187        N188   1.315       .  A
N187       Mn199   2.174       .  S
N188        C189   1.348       .  A
C189       C4971   1.462       .  S
C190       C4776   1.459       .  S
N191        N197   1.311       .  A
N191        N192   1.320       .  A
N191       Mn221   2.189       .  S
N192        C200   1.352       .  A
N193        N194   1.317       .  A
N193        N195   1.311       .  A
N193       Mn199   2.186       .  S
N194        C201   1.351       .  A
N195        N196   1.321       .  A
N195       Mn221   2.184       .  S
N196        C201   1.351       .  A
N197        N198   1.318       .  A
N197       Mn199   2.179       .  S
N198        C200   1.351       .  A
Mn199      Cl223   2.559       .  S
C200       C4891   1.460       .  S
C201       C5032   1.461       .  S
N202        N203   1.310       .  A
N202        N208   1.319       .  A
N202       Mn210   2.170       .  S
N203        C211   1.340       .  A
N204        N206   1.319       .  A
N204        N205   1.338       .  A
N204       Mn222   2.292       .  S
N205        C212   1.371       .  A
N206        N207   1.309       .  A
N206       Mn210   2.156       .  S
N207        C212   1.337       .  A
N208        N209   1.338       .  A
N208       Mn222   2.291       .  S
N209        C211   1.370       .  A
Mn210      Cl223   2.521       .  S
C211       C4763   1.491       .  S
C212       C4728   1.484       .  S
N213        N214   1.310       .  A
N213        N219   1.319       .  A
N213       Mn221   2.160       .  S
N214        C224   1.339       .  A
N215        N216   1.337       .  A
N215        N217   1.318       .  A
N215       Mn222   2.290       .  S
N216        C225   1.371       .  A
N217        N218   1.308       .  A
N217       Mn221   2.147       .  S
N218        C225   1.337       .  A
N219        N220   1.336       .  A
N219       Mn222   2.285       .  S
N220        C224   1.369       .  A
Mn221      Cl223   2.519       .  S
Mn222      Cl223   2.577       .  S
C224       C4744   1.485       .  S
C225       C4792   1.484       .  S
N226        N227   1.321       .  A
N226        N232   1.312       .  A
N226       Mn255   2.190       .  S
N227        C234   1.353       .  A
N228        N230   1.313       .  A
N228        N229   1.317       .  A
N228       Mn244   2.184       .  S
N229        C235   1.350       .  A
N230        N231   1.319       .  A
N230       Mn255   2.186       .  S
N231        C235   1.351       .  A
N232        N233   1.316       .  A
N232       Mn244   2.175       .  S
N233        C234   1.348       .  A
C234       C5160   1.457       .  S
C235       C4859   1.457       .  S
N236        N242   1.311       .  A
N236        N237   1.322       .  A
N236       Mn266   2.188       .  S
N237        C245   1.353       .  A
N238        N239   1.319       .  A
N238        N240   1.311       .  A
N238       Mn244   2.190       .  S
N239        C246   1.351       .  A
N240        N241   1.321       .  A
N240       Mn266   2.191       .  S
N241        C246   1.353       .  A
N242        N243   1.316       .  A
N242       Mn244   2.180       .  S
N243        C245   1.349       .  A
Mn244      Cl268   2.556       .  S
C245       C4779   1.458       .  S
C246       C4923   1.464       .  S
N247        N248   1.311       .  A
N247        N253   1.319       .  A
N247       Mn255   2.162       .  S
N248        C256   1.339       .  A
N249        N251   1.319       .  A
N249        N250   1.336       .  A
N249       Mn267   2.287       .  S
N250        C257   1.369       .  A
N251        N252   1.313       .  A
N251       Mn255   2.169       .  S
N252        C257   1.342       .  A
N253        N254   1.337       .  A
N253       Mn267   2.289       .  S
N254        C256   1.370       .  A
Mn255      Cl268   2.525       .  S
C256       C4696   1.485       .  S
C257       C4683   1.489       .  S
N258        N259   1.308       .  A
N258        N264   1.319       .  A
N258       Mn266   2.148       .  S
N259        C269   1.337       .  A
N260        N261   1.337       .  A
N260        N262   1.320       .  A
N260       Mn267   2.293       .  S
N261        C270   1.370       .  A
N262        N263   1.309       .  A
N262       Mn266   2.159       .  S
N263        C270   1.339       .  A
N264        N265   1.335       .  A
N264       Mn267   2.279       .  S
N265        C269   1.367       .  A
Mn266      Cl268   2.527       .  S
Mn267      Cl268   2.573       .  S
C269       C4664   1.472       .  S
C270       C4715   1.487       .  S
N271        N272   1.336       .  A
N271        N277   1.319       .  A
N271       Mn300   2.287       .  S
N272        C279   1.368       .  A
N273        N275   1.318       .  A
N273        N274   1.310       .  A
N273       Mn289   2.155       .  S
N274        C280   1.339       .  A
N275        N276   1.336       .  A
N275       Mn300   2.283       .  S
N276        C280   1.369       .  A
N277        N278   1.312       .  A
N277       Mn289   2.168       .  S
N278        C279   1.341       .  A
C279       C4651   1.486       .  S
C280       C4571   1.484       .  S
N281        N287   1.312       .  A
N281        N282   1.316       .  A
N281       Mn311   2.176       .  S
N282        C290   1.350       .  A
N283        N284   1.319       .  A
N283        N285   1.311       .  A
N283       Mn289   2.185       .  S
N284        C291   1.352       .  A
N285        N286   1.317       .  A
N285       Mn311   2.178       .  S
N286        C291   1.349       .  A
N287        N288   1.321       .  A
N287       Mn289   2.195       .  S
N288        C290   1.353       .  A
Mn289      Cl313   2.527       .  S
C290       C4552   1.461       .  S
C291       C4632   1.457       .  S
N292        N293   1.336       .  A
N292        N298   1.319       .  A
N292       Mn300   2.285       .  S
N293        C301   1.369       .  A
N294        N296   1.318       .  A
N294        N295   1.310       .  A
N294       Mn312   2.151       .  S
N295        C302   1.339       .  A
N296        N297   1.333       .  A
N296       Mn300   2.274       .  S
N297        C302   1.366       .  A
N298        N299   1.310       .  A
N298       Mn312   2.162       .  S
N299        C301   1.340       .  A
Mn300      Cl313   2.566       .  S
C301       C4539   1.484       .  S
C302       C4603   1.473       .  S
N303        N304   1.314       .  A
N303        N309   1.312       .  A
N303       Mn311   2.172       .  S
N304        C314   1.347       .  A
N305        N306   1.319       .  A
N305        N307   1.311       .  A
N305       Mn312   2.179       .  S
N306        C315   1.351       .  A
N307        N308   1.316       .  A
N307       Mn311   2.172       .  S
N308        C315   1.348       .  A
N309        N310   1.323       .  A
N309       Mn312   2.196       .  S
N310        C314   1.354       .  A
Mn311      Cl313   2.552       .  S
Mn312      Cl313   2.528       .  S
C314       C4619   1.456       .  S
C315       C4584   1.451       .  S
N316        N317   1.321       .  A
N316        N322   1.310       .  A
N316       Mn345   2.184       .  S
N317        C324   1.352       .  A
N318        N320   1.311       .  A
N318        N319   1.316       .  A
N318       Mn334   2.179       .  S
N319        C325   1.349       .  A
N320        N321   1.320       .  A
N320       Mn345   2.180       .  S
N321        C325   1.351       .  A
N322        N323   1.315       .  A
N322       Mn334   2.170       .  S
N323        C324   1.349       .  A
C324       C4472   1.456       .  S
C325       C4456   1.454       .  S
N326        N332   1.312       .  A
N326        N327   1.321       .  A
N326       Mn356   2.194       .  S
N327        C335   1.352       .  A
N328        N329   1.315       .  A
N328        N330   1.312       .  A
N328       Mn334   2.173       .  S
N329        C336   1.348       .  A
N330        N331   1.322       .  A
N330       Mn356   2.197       .  S
N331        C336   1.353       .  A
N332        N333   1.315       .  A
N332       Mn334   2.168       .  S
N333        C335   1.348       .  A
Mn334      Cl358   2.555       .  S
C335       C4488   1.456       .  S
C336       C4635   1.459       .  S
N337        N338   1.310       .  A
N337        N343   1.319       .  A
N337       Mn345   2.151       .  S
N338        C346   1.338       .  A
N339        N341   1.318       .  A
N339        N340   1.334       .  A
N339       Mn357   2.276       .  S
N340        C347   1.368       .  A
N341        N342   1.308       .  A
N341       Mn345   2.147       .  S
N342        C347   1.336       .  A
N343        N344   1.335       .  A
N343       Mn357   2.285       .  S
N344        C346   1.369       .  A
Mn345      Cl358   2.526       .  S
C346       C4443   1.480       .  S
C347       C4427   1.472       .  S
N348        N349   1.312       .  A
N348        N354   1.319       .  A
N348       Mn356   2.170       .  S
N349        C359   1.342       .  A
N350        N351   1.335       .  A
N350        N352   1.320       .  A
N350       Mn357   2.285       .  S
N351        C360   1.368       .  A
N352        N353   1.312       .  A
N352       Mn356   2.168       .  S
N353        C360   1.340       .  A
N354        N355   1.335       .  A
N354       Mn357   2.280       .  S
N355        C359   1.367       .  A
Mn356      Cl358   2.527       .  S
Mn357      Cl358   2.567       .  S
C359       C4520   1.486       .  S
C360       C4504   1.481       .  S
N361        N362   1.322       .  A
N361        N367   1.311       .  A
N361       Mn390   2.190       .  S
N362        C369   1.353       .  A
N363        N365   1.311       .  A
N363        N364   1.315       .  A
N363       Mn379   2.169       .  S
N364        C370   1.348       .  A
N365        N366   1.320       .  A
N365       Mn390   2.192       .  S
N366        C370   1.353       .  A
N367        N368   1.317       .  A
N367       Mn379   2.182       .  S
N368        C369   1.349       .  A
C369       C4555   1.460       .  S
C370       C4491   1.454       .  S
N371        N377   1.311       .  A
N371        N372   1.321       .  A
N371       Mn401   2.182       .  S
N372        C380   1.351       .  A
N373        N374   1.315       .  A
N373        N375   1.312       .  A
N373       Mn379   2.170       .  S
N374        C381   1.348       .  A
N375        N376   1.322       .  A
N375       Mn401   2.201       .  S
N376        C381   1.354       .  A
N377        N378   1.317       .  A
N377       Mn379   2.181       .  S
N378        C380   1.350       .  A
Mn379      Cl403   2.554       .  S
C380       C4392   1.458       .  S
C381       C4344   1.459       .  S
N382        N383   1.310       .  A
N382        N388   1.318       .  A
N382       Mn390   2.156       .  S
N383        C391   1.338       .  A
N384        N386   1.320       .  A
N384        N385   1.333       .  A
N384       Mn402   2.278       .  S
N385        C392   1.367       .  A
N386        N387   1.311       .  A
N386       Mn390   2.163       .  S
N387        C392   1.340       .  A
N388        N389   1.334       .  A
N388       Mn402   2.277       .  S
N389        C391   1.367       .  A
Mn390      Cl403   2.528       .  S
C391       C4408   1.476       .  S
C392       C4328   1.476       .  S
N393        N394   1.311       .  A
N393        N399   1.318       .  A
N393       Mn401   2.157       .  S
N394        C404   1.339       .  A
N395        N396   1.335       .  A
N395        N397   1.319       .  A
N395       Mn402   2.280       .  S
N396        C405   1.368       .  A
N397        N398   1.312       .  A
N397       Mn401   2.170       .  S
N398        C405   1.340       .  A
N399        N400   1.335       .  A
N399       Mn402   2.283       .  S
N400        C404   1.369       .  A
Mn401      Cl403   2.529       .  S
Mn402      Cl403   2.566       .  S
C404       C4363   1.480       .  S
C405       C4376   1.482       .  S
N406        N407   1.322       .  A
N406        N412   1.312       .  A
N406       Mn435   2.192       .  S
N407        C414   1.353       .  A
N408        N410   1.312       .  A
N408        N409   1.319       .  A
N408       Mn424   2.184       .  S
N409        C415   1.351       .  A
N410        N411   1.319       .  A
N410       Mn435   2.186       .  S
N411        C415   1.350       .  A
N412        N413   1.314       .  A
N412       Mn424   2.172       .  S
N413        C414   1.348       .  A
C414       C4616   1.458       .  S
C415       C4280   1.458       .  S
N416        N422   1.311       .  A
N416        N417   1.320       .  A
N416       Mn446   2.183       .  S
N417        C425   1.351       .  A
N418        N419   1.317       .  A
N418        N420   1.312       .  A
N418       Mn424   2.183       .  S
N419        C426   1.350       .  A
N420        N421   1.320       .  A
N420       Mn446   2.187       .  S
N421        C426   1.352       .  A
N422        N423   1.316       .  A
N422       Mn424   2.176       .  S
N423        C425   1.349       .  A
Mn424      Cl448   2.557       .  S
C425       C4312   1.455       .  S
C426       C4475   1.458       .  S
N427        N428   1.311       .  A
N427        N433   1.319       .  A
N427       Mn435   2.161       .  S
N428        C436   1.340       .  A
N429        N431   1.319       .  A
N429        N430   1.334       .  A
N429       Mn447   2.281       .  S
N430        C437   1.367       .  A
N431        N432   1.313       .  A
N431       Mn435   2.164       .  S
N432        C437   1.341       .  A
N433        N434   1.336       .  A
N433       Mn447   2.287       .  S
N434        C436   1.369       .  A
Mn435      Cl448   2.527       .  S
C436       C4267   1.485       .  S
C437       C4232   1.482       .  S
N438        N439   1.310       .  A
N438        N444   1.319       .  A
N438       Mn446   2.157       .  S
N439        C449   1.338       .  A
N440        N441   1.337       .  A
N440        N442   1.318       .  A
N440       Mn447   2.290       .  S
N441        C450   1.370       .  A
N442        N443   1.310       .  A
N442       Mn446   2.159       .  S
N443        C450   1.340       .  A
N444        N445   1.336       .  A
N444       Mn447   2.286       .  S
N445        C449   1.369       .  A
Mn446      Cl448   2.525       .  S
Mn447      Cl448   2.569       .  S
C449       C4248   1.479       .  S
C450       C4296   1.489       .  S
N451        N452   1.321       .  A
N451        N457   1.312       .  A
N451       Mn480   2.190       .  S
N452        C459   1.352       .  A
N453        N455   1.312       .  A
N453        N454   1.316       .  A
N453       Mn469   2.178       .  S
N454        C460   1.349       .  A
N455        N456   1.321       .  A
N455       Mn480   2.191       .  S
N456        C460   1.352       .  A
N457        N458   1.314       .  A
N457       Mn469   2.171       .  S
N458        C459   1.349       .  A
C459       C4459   1.456       .  S
C460       C4315   1.459       .  S
N461        N467   1.311       .  A
N461        N462   1.322       .  A
N461       Mn491   2.196       .  S
N462        C470   1.354       .  A
N463        N464   1.318       .  A
N463        N465   1.311       .  A
N463       Mn469   2.187       .  S
N464        C471   1.351       .  A
N465        N466   1.321       .  A
N465       Mn491   2.184       .  S
N466        C471   1.351       .  A
N467        N468   1.316       .  A
N467       Mn469   2.172       .  S
N468        C470   1.348       .  A
Mn469      Cl493   2.559       .  S
C470       C4203   1.458       .  S
C471       C4395   1.459       .  S
N472        N473   1.311       .  A
N472        N478   1.319       .  A
N472       Mn480   2.164       .  S
N473        C481   1.340       .  A
N474        N476   1.319       .  A
N474        N475   1.336       .  A
N474       Mn492   2.285       .  S
N475        C482   1.369       .  A
N476        N477   1.312       .  A
N476       Mn480   2.165       .  S
N477        C482   1.340       .  A
N478        N479   1.338       .  A
N478       Mn492   2.293       .  S
N479        C481   1.371       .  A
Mn480      Cl493   2.525       .  S
C481       C4216   1.492       .  S
C482       C4152   1.483       .  S
N483        N484   1.311       .  A
N483        N489   1.320       .  A
N483       Mn491   2.166       .  S
N484        C494   1.341       .  A
N485        N486   1.336       .  A
N485        N487   1.319       .  A
N485       Mn492   2.286       .  S
N486        C495   1.369       .  A
N487        N488   1.308       .  A
N487       Mn491   2.148       .  S
N488        C495   1.337       .  A
N489        N490   1.335       .  A
N489       Mn492   2.283       .  S
N490        C494   1.368       .  A
Mn491      Cl493   2.525       .  S
Mn492      Cl493   2.573       .  S
C494       C4171   1.485       .  S
C495       C4184   1.480       .  S
N496        N497   1.321       .  A
N496        N502   1.310       .  A
N496       Mn525   2.191       .  S
N497        C504   1.353       .  A
N498        N500   1.311       .  A
N498        N499   1.316       .  A
N498       Mn514   2.174       .  S
N499        C505   1.349       .  A
N500        N501   1.320       .  A
N500       Mn525   2.186       .  S
N501        C505   1.351       .  A
N502        N503   1.317       .  A
N502       Mn514   2.174       .  S
N503        C504   1.349       .  A
C504       C4347   1.459       .  S
C505       C4200   1.457       .  S
N506        N512   1.311       .  A
N506        N507   1.321       .  A
N506       Mn536   2.184       .  S
N507        C515   1.352       .  A
N508        N509   1.314       .  A
N508        N510   1.312       .  A
N508       Mn514   2.168       .  S
N509        C516   1.348       .  A
N510        N511   1.321       .  A
N510       Mn536   2.193       .  S
N511        C516   1.353       .  A
N512        N513   1.315       .  A
N512       Mn514   2.168       .  S
N513        C515   1.348       .  A
Mn514      Cl538   2.555       .  S
C515       C4283   1.455       .  S
C516       C4587   1.455       .  S
N517        N518   1.310       .  A
N517        N523   1.318       .  A
N517       Mn525   2.157       .  S
N518        C526   1.339       .  A
N519        N521   1.320       .  A
N519        N520   1.337       .  A
N519       Mn537   2.300       .  S
N520        C527   1.371       .  A
N521        N522   1.311       .  A
N521       Mn525   2.158       .  S
N522        C527   1.338       .  A
N523        N524   1.337       .  A
N523       Mn537   2.286       .  S
N524        C526   1.370       .  A
Mn525      Cl538   2.523       .  S
C526       C4136   1.487       .  S
C527       C4088   1.485       .  S
N528        N529   1.310       .  A
N528        N534   1.319       .  A
N528       Mn536   2.155       .  S
N529        C539   1.339       .  A
N530        N531   1.337       .  A
N530        N532   1.320       .  A
N530       Mn537   2.297       .  S
N531        C540   1.370       .  A
N532        N533   1.312       .  A
N532       Mn536   2.163       .  S
N533        C540   1.341       .  A
N534        N535   1.335       .  A
N534       Mn537   2.284       .  S
N535        C539   1.368       .  A
Mn536      Cl538   2.525       .  S
Mn537      Cl538   2.570       .  S
C539       C4104   1.481       .  S
C540       C4120   1.489       .  S
N541        N542   1.319       .  A
N541        N547   1.312       .  A
N541       Mn570   2.199       .  S
N542        C549   1.353       .  A
N543        N545   1.312       .  A
N543        N544   1.320       .  A
N543       Mn559   2.181       .  S
N544        C550   1.351       .  A
N545        N546   1.317       .  A
N545       Mn570   2.185       .  S
N546        C550   1.350       .  A
N547        N548   1.320       .  A
N547       Mn559   2.179       .  S
N548        C549   1.350       .  A
C549       C4056   1.461       .  S
C550       C4024   1.456       .  S
N551        N557   1.318       .  A
N551        N552   1.334       .  A
N551       Mn581   2.271       .  S
N552        C560   1.366       .  A
N553        N554   1.310       .  A
N553        N555   1.318       .  A
N553       Mn559   2.153       .  S
N554        C561   1.339       .  A
N555        N556   1.336       .  A
N555       Mn581   2.285       .  S
N556        C561   1.369       .  A
N557        N558   1.309       .  A
N557       Mn559   2.155       .  S
N558        C560   1.339       .  A
Mn559      Cl583   2.527       .  S
C560       C4040   1.473       .  S
C561       C4072   1.485       .  S
N562        N563   1.318       .  A
N562        N568   1.313       .  A
N562       Mn570   2.196       .  S
N563        C571   1.352       .  A
N564        N566   1.312       .  A
N564        N565   1.322       .  A
N564       Mn582   2.192       .  S
N565        C572   1.353       .  A
N566        N567   1.317       .  A
N566       Mn570   2.185       .  S
N567        C572   1.349       .  A
N568        N569   1.322       .  A
N568       Mn582   2.194       .  S
N569        C571   1.352       .  A
Mn570      Cl583   2.555       .  S
C571       C4008   1.466       .  S
C572       C3995   1.461       .  S
N573        N574   1.335       .  A
N573        N579   1.319       .  A
N573       Mn581   2.275       .  S
N574        C584   1.367       .  A
N575        N576   1.312       .  A
N575        N577   1.319       .  A
N575       Mn582   2.162       .  S
N576        C585   1.339       .  A
N577        N578   1.335       .  A
N577       Mn581   2.285       .  S
N578        C585   1.369       .  A
N579        N580   1.310       .  A
N579       Mn582   2.166       .  S
N580        C584   1.341       .  A
Mn581      Cl583   2.570       .  S
Mn582      Cl583   2.529       .  S
C584       C3963   1.483       .  S
C585       C3979   1.481       .  S
N586        N587   1.322       .  A
N586        N592   1.311       .  A
N586       Mn615   2.195       .  S
N587        C594   1.353       .  A
N588        N590   1.311       .  A
N588        N589   1.315       .  A
N588       Mn604   2.176       .  S
N589        C595   1.348       .  A
N590        N591   1.322       .  A
N590       Mn615   2.191       .  S
N591        C595   1.354       .  A
N592        N593   1.316       .  A
N592       Mn604   2.174       .  S
N593        C594   1.349       .  A
C594       C3928   1.460       .  S
C595       C3880   1.458       .  S
N596        N602   1.311       .  A
N596        N597   1.319       .  A
N596       Mn626   2.182       .  S
N597        C605   1.351       .  A
N598        N599   1.317       .  A
N598        N600   1.312       .  A
N598       Mn604   2.178       .  S
N599        C606   1.350       .  A
N600        N601   1.320       .  A
N600       Mn626   2.187       .  S
N601        C606   1.351       .  A
N602        N603   1.315       .  A
N602       Mn604   2.168       .  S
N603        C605   1.348       .  A
Mn604      Cl628   2.556       .  S
C605       C3864   1.451       .  S
C606       C4027   1.457       .  S
N607        N608   1.310       .  A
N607        N613   1.319       .  A
N607       Mn615   2.157       .  S
N608        C616   1.339       .  A
N609        N611   1.319       .  A
N609        N610   1.334       .  A
N609       Mn627   2.274       .  S
N610        C617   1.367       .  A
N611        N612   1.309       .  A
N611       Mn615   2.156       .  S
N612        C617   1.339       .  A
N613        N614   1.336       .  A
N613       Mn627   2.290       .  S
N614        C616   1.369       .  A
Mn615      Cl628   2.525       .  S
C616       C3896   1.484       .  S
C617       C3912   1.477       .  S
N618        N619   1.312       .  A
N618        N624   1.319       .  A
N618       Mn626   2.161       .  S
N619        C629   1.341       .  A
N620        N621   1.336       .  A
N620        N622   1.318       .  A
N620       Mn627   2.282       .  S
N621        C630   1.369       .  A
N622        N623   1.310       .  A
N622       Mn626   2.161       .  S
N623        C630   1.340       .  A
N624        N625   1.336       .  A
N624       Mn627   2.292       .  S
N625        C629   1.370       .  A
Mn626      Cl628   2.525       .  S
Mn627      Cl628   2.568       .  S
C629       C3944   1.488       .  S
C630       C3848   1.485       .  S
N631        N632   1.322       .  A
N631        N637   1.312       .  A
N631       Mn660   2.192       .  S
N632        C639   1.352       .  A
N633        N635   1.311       .  A
N633        N634   1.315       .  A
N633       Mn649   2.171       .  S
N634        C640   1.348       .  A
N635        N636   1.319       .  A
N635       Mn660   2.179       .  S
N636        C640   1.351       .  A
N637        N638   1.317       .  A
N637       Mn649   2.189       .  S
N638        C639   1.352       .  A
C639       C4059   1.463       .  S
C640       C3867   1.450       .  S
N641        N647   1.312       .  A
N641        N642   1.322       .  A
N641       Mn671   2.193       .  S
N642        C650   1.353       .  A
N643        N644   1.316       .  A
N643        N645   1.312       .  A
N643       Mn649   2.175       .  S
N644        C651   1.350       .  A
N645        N646   1.321       .  A
N645       Mn671   2.190       .  S
N646        C651   1.352       .  A
N647        N648   1.316       .  A
N647       Mn649   2.181       .  S
N648        C650   1.349       .  A
Mn649      Cl673   2.553       .  S
C650       C3752   1.462       .  S
C651       C3816   1.458       .  S
N652        N653   1.312       .  A
N652        N658   1.319       .  A
N652       Mn660   2.164       .  S
N653        C661   1.340       .  A
N654        N656   1.318       .  A
N654        N655   1.334       .  A
N654       Mn672   2.272       .  S
N655        C662   1.367       .  A
N656        N657   1.309       .  A
N656       Mn660   2.151       .  S
N657        C662   1.339       .  A
N658        N659   1.336       .  A
N658       Mn672   2.288       .  S
N659        C661   1.369       .  A
Mn660      Cl673   2.528       .  S
C661       C3784   1.483       .  S
C662       C3832   1.477       .  S
N663        N664   1.311       .  A
N663        N669   1.319       .  A
N663       Mn671   2.161       .  S
N664        C674   1.340       .  A
N665        N666   1.333       .  A
N665        N667   1.318       .  A
N665       Mn672   2.268       .  S
N666        C675   1.366       .  A
N667        N668   1.311       .  A
N667       Mn671   2.161       .  S
N668        C675   1.339       .  A
N669        N670   1.335       .  A
N669       Mn672   2.285       .  S
N670        C674   1.369       .  A
Mn671      Cl673   2.527       .  S
Mn672      Cl673   2.567       .  S
C674       C3800   1.484       .  S
C675       C3768   1.473       .  S
N676        N677   1.322       .  A
N676        N682   1.313       .  A
N676       Mn705   2.199       .  S
N677        C684   1.353       .  A
N678        N680   1.313       .  A
N678        N679   1.316       .  A
N678       Mn694   2.179       .  S
N679        C685   1.348       .  A
N680        N681   1.323       .  A
N680       Mn705   2.198       .  S
N681        C685   1.354       .  A
N682        N683   1.318       .  A
N682       Mn694   2.191       .  S
N683        C684   1.350       .  A
C684       C4011   1.464       .  S
C685       C3707   1.459       .  S
N686        N692   1.312       .  A
N686        N687   1.322       .  A
N686       Mn716   2.192       .  S
N687        C695   1.352       .  A
N688        N689   1.319       .  A
N688        N690   1.312       .  A
N688       Mn694   2.185       .  S
N689        C696   1.351       .  A
N690        N691   1.319       .  A
N690       Mn716   2.187       .  S
N691        C696   1.351       .  A
N692        N693   1.317       .  A
N692       Mn694   2.190       .  S
N693        C695   1.351       .  A
Mn694      Cl718   2.555       .  S
C695       C3739   1.463       .  S
C696       C3931   1.459       .  S
N697        N698   1.312       .  A
N697        N703   1.319       .  A
N697       Mn705   2.174       .  S
N698        C706   1.341       .  A
N699        N701   1.319       .  A
N699        N700   1.335       .  A
N699       Mn717   2.284       .  S
N700        C707   1.368       .  A
N701        N702   1.313       .  A
N701       Mn705   2.171       .  S
N702        C707   1.341       .  A
N703        N704   1.336       .  A
N703       Mn717   2.281       .  S
N704        C706   1.368       .  A
Mn705      Cl718   2.536       .  S
C706       C3688   1.484       .  S
C707       C3659   1.484       .  S
N708        N709   1.314       .  A
N708        N714   1.319       .  A
N708       Mn716   2.168       .  S
N709        C719   1.341       .  A
N710        N711   1.334       .  A
N710        N712   1.318       .  A
N710       Mn717   2.277       .  S
N711        C720   1.367       .  A
N712        N713   1.312       .  A
N712       Mn716   2.165       .  S
N713        C720   1.341       .  A
N714        N715   1.334       .  A
N714       Mn717   2.284       .  S
N715        C719   1.368       .  A
Mn716      Cl718   2.534       .  S
Mn717      Cl718   2.567       .  S
C719       C3672   1.484       .  S
C720       C3720   1.480       .  S
N721        N722   1.322       .  A
N721        N727   1.311       .  A
N721       Mn750   2.184       .  S
N722        C729   1.352       .  A
N723        N725   1.311       .  A
N723        N724   1.315       .  A
N723       Mn739   2.176       .  S
N724        C730   1.349       .  A
N725        N726   1.320       .  A
N725       Mn750   2.183       .  S
N726        C730   1.351       .  A
N727        N728   1.314       .  A
N727       Mn739   2.176       .  S
N728        C729   1.348       .  A
C729       C3819   1.455       .  S
C730       C3640   1.455       .  S
N731        N737   1.311       .  A
N731        N732   1.322       .  A
N731       Mn761   2.185       .  S
N732        C740   1.352       .  A
N733        N734   1.316       .  A
N733        N735   1.312       .  A
N733       Mn739   2.180       .  S
N734        C741   1.350       .  A
N735        N736   1.322       .  A
N735       Mn761   2.196       .  S
N736        C741   1.353       .  A
N737        N738   1.315       .  A
N737       Mn739   2.177       .  S
N738        C740   1.350       .  A
Mn739      Cl763   2.551       .  S
C740       C3704   1.459       .  S
C741       C3992   1.463       .  S
N742        N743   1.308       .  A
N742        N748   1.318       .  A
N742       Mn750   2.150       .  S
N743        C751   1.338       .  A
N744        N746   1.319       .  A
N744        N745   1.335       .  A
N744       Mn762   2.288       .  S
N745        C752   1.369       .  A
N746        N747   1.310       .  A
N746       Mn750   2.154       .  S
N747        C752   1.339       .  A
N748        N749   1.337       .  A
N748       Mn762   2.287       .  S
N749        C751   1.370       .  A
Mn750      Cl763   2.527       .  S
C751       C3624   1.484       .  S
C752       C3595   1.482       .  S
N753        N754   1.309       .  A
N753        N759   1.319       .  A
N753       Mn761   2.153       .  S
N754        C764   1.337       .  A
N755        N756   1.336       .  A
N755        N757   1.319       .  A
N755       Mn762   2.290       .  S
N756        C765   1.370       .  A
N757        N758   1.311       .  A
N757       Mn761   2.160       .  S
N758        C765   1.338       .  A
N759        N760   1.336       .  A
N759       Mn762   2.288       .  S
N760        C764   1.369       .  A
Mn761      Cl763   2.528       .  S
Mn762      Cl763   2.567       .  S
C764       C3579   1.479       .  S
C765       C3608   1.483       .  S
N766        N767   1.324       .  A
N766        N772   1.311       .  A
N766       Mn795   2.202       .  S
N767        C774   1.355       .  A
N768        N770   1.312       .  A
N768        N769   1.317       .  A
N768       Mn784   2.184       .  S
N769        C775   1.350       .  A
N770        N771   1.321       .  A
N770       Mn795   2.188       .  S
N771        C775   1.352       .  A
N772        N773   1.314       .  A
N772       Mn784   2.166       .  S
N773        C774   1.347       .  A
C774       C3883   1.461       .  S
C775       C3736   1.459       .  S
N776        N782   1.310       .  A
N776        N777   1.319       .  A
N776       Mn806   2.177       .  S
N777        C785   1.350       .  A
N778        N779   1.317       .  A
N778        N780   1.312       .  A
N778       Mn784   2.186       .  S
N779        C786   1.349       .  A
N780        N781   1.322       .  A
N780       Mn806   2.197       .  S
N781        C786   1.354       .  A
N782        N783   1.316       .  A
N782       Mn784   2.170       .  S
N783        C785   1.349       .  A
Mn784      Cl808   2.554       .  S
C785       C3643   1.452       .  S
C786       C3755   1.462       .  S
N787        N788   1.313       .  A
N787        N793   1.319       .  A
N787       Mn795   2.167       .  S
N788        C796   1.341       .  A
N789        N791   1.319       .  A
N789        N790   1.337       .  A
N789       Mn807   2.292       .  S
N790        C797   1.370       .  A
N791        N792   1.309       .  A
N791       Mn795   2.154       .  S
N792        C797   1.338       .  A
N793        N794   1.334       .  A
N793       Mn807   2.281       .  S
N794        C796   1.367       .  A
Mn795      Cl808   2.529       .  S
C796       C3547   1.481       .  S
C797       C3512   1.485       .  S
N798        N799   1.310       .  A
N798        N804   1.318       .  A
N798       Mn806   2.159       .  S
N799        C809   1.339       .  A
N800        N801   1.337       .  A
N800        N802   1.319       .  A
N800       Mn807   2.291       .  S
N801        C810   1.370       .  A
N802        N803   1.312       .  A
N802       Mn806   2.165       .  S
N803        C810   1.340       .  A
N804        N805   1.336       .  A
N804       Mn807   2.281       .  S
N805        C809   1.368       .  A
Mn806      Cl808   2.525       .  S
Mn807      Cl808   2.568       .  S
C809       C3528   1.480       .  S
C810       C3560   1.489       .  S
N811        N812   1.318       .  A
N811        N817   1.311       .  A
N811       Mn840   2.181       .  S
N812        C819   1.350       .  A
N813        N815   1.312       .  A
N813        N814   1.322       .  A
N813       Mn829   2.198       .  S
N814        C820   1.354       .  A
N815        N816   1.318       .  A
N815       Mn840   2.188       .  S
N816        C820   1.350       .  A
N817        N818   1.319       .  A
N817       Mn829   2.181       .  S
N818        C819   1.351       .  A
C819       C3496   1.457       .  S
C820       C3467   1.465       .  S
N821        N827   1.319       .  A
N821        N822   1.335       .  A
N821       Mn851   2.282       .  S
N822        C830   1.368       .  A
N823        N824   1.313       .  A
N823        N825   1.319       .  A
N823       Mn829   2.165       .  S
N824        C831   1.340       .  A
N825        N826   1.334       .  A
N825       Mn851   2.284       .  S
N826        C831   1.368       .  A
N827        N828   1.310       .  A
N827       Mn829   2.154       .  S
N828        C830   1.338       .  A
Mn829      Cl853   2.527       .  S
C830       C3435   1.476       .  S
C831       C3691   1.482       .  S
N832        N833   1.316       .  A
N832        N838   1.312       .  A
N832       Mn840   2.176       .  S
N833        C841   1.349       .  A
N834        N836   1.312       .  A
N834        N835   1.320       .  A
N834       Mn852   2.181       .  S
N835        C842   1.350       .  A
N836        N837   1.317       .  A
N836       Mn840   2.186       .  S
N837        C842   1.351       .  A
N838        N839   1.323       .  A
N838       Mn852   2.196       .  S
N839        C841   1.353       .  A
Mn840      Cl853   2.558       .  S
C841       C3451   1.460       .  S
C842       C3480   1.458       .  S
N843        N844   1.336       .  A
N843        N849   1.319       .  A
N843       Mn851   2.283       .  S
N844        C854   1.368       .  A
N845        N846   1.310       .  A
N845        N847   1.319       .  A
N845       Mn852   2.152       .  S
N846        C855   1.337       .  A
N847        N848   1.336       .  A
N847       Mn851   2.291       .  S
N848        C855   1.370       .  A
N849        N850   1.312       .  A
N849       Mn852   2.168       .  S
N850        C854   1.340       .  A
Mn851      Cl853   2.569       .  S
Mn852      Cl853   2.528       .  S
C854       C3611   1.483       .  S
C855       C3419   1.480       .  S
N856        N857   1.316       .  A
N856        N862   1.311       .  A
N856       Mn885   2.178       .  S
N857        C864   1.349       .  A
N858        N860   1.311       .  A
N858        N859   1.320       .  A
N858       Mn874   2.186       .  S
N859        C865   1.351       .  A
N860        N861   1.315       .  A
N860       Mn885   2.172       .  S
N861        C865   1.349       .  A
N862        N863   1.318       .  A
N862       Mn874   2.174       .  S
N863        C864   1.350       .  A
C864       C3400   1.451       .  S
C865       C3384   1.455       .  S
N866        N872   1.318       .  A
N866        N867   1.336       .  A
N866       Mn896   2.285       .  S
N867        C875   1.370       .  A
N868        N869   1.309       .  A
N868        N870   1.318       .  A
N868       Mn874   2.162       .  S
N869        C876   1.340       .  A
N870        N871   1.338       .  A
N870       Mn896   2.284       .  S
N871        C876   1.370       .  A
N872        N873   1.308       .  A
N872       Mn874   2.148       .  S
N873        C875   1.338       .  A
Mn874      Cl898   2.517       .  S
C875       C3339   1.482       .  S
C876       C3803   1.488       .  S
N877        N878   1.317       .  A
N877        N883   1.312       .  A
N877       Mn885   2.179       .  S
N878        C886   1.350       .  A
N879        N881   1.311       .  A
N879        N880   1.322       .  A
N879       Mn897   2.199       .  S
N880        C887   1.354       .  A
N881        N882   1.316       .  A
N881       Mn885   2.174       .  S
N882        C887   1.349       .  A
N883        N884   1.322       .  A
N883       Mn897   2.198       .  S
N884        C886   1.353       .  A
Mn885      Cl898   2.561       .  S
C886       C3352   1.463       .  S
C887       C3368   1.462       .  S
N888        N889   1.336       .  A
N888        N894   1.319       .  A
N888       Mn896   2.279       .  S
N889        C899   1.368       .  A
N890        N891   1.310       .  A
N890        N892   1.319       .  A
N890       Mn897   2.163       .  S
N891        C900   1.339       .  A
N892        N893   1.335       .  A
N892       Mn896   2.275       .  S
N893        C900   1.367       .  A
N894        N895   1.309       .  A
N894       Mn897   2.163       .  S
N895        C899   1.340       .  A
Mn896      Cl898   2.578       .  S
Mn897      Cl898   2.517       .  S
C899       C3592   1.483       .  S
C900       C3320   1.476       .  S
N901        N902   1.333       .  A
N901        N907   1.319       .  A
N901       Mn930   2.271       .  S
N902        C909   1.366       .  A
N903        N905   1.319       .  A
N903        N904   1.311       .  A
N903       Mn919   2.166       .  S
N904        C910   1.340       .  A
N905        N906   1.335       .  A
N905       Mn930   2.280       .  S
N906        C910   1.367       .  A
N907        N908   1.310       .  A
N907       Mn919   2.161       .  S
N908        C909   1.339       .  A
C909       C5016   1.473       .  S
C910       C3976   1.480       .  S
N911        N917   1.312       .  A
N911        N912   1.318       .  A
N911       Mn941   2.185       .  S
N912        C920   1.350       .  A
N913        N914   1.323       .  A
N913        N915   1.311       .  A
N913       Mn919   2.194       .  S
N914        C921   1.354       .  A
N915        N916   1.314       .  A
N915       Mn941   2.165       .  S
N916        C921   1.346       .  A
N917        N918   1.320       .  A
N917       Mn919   2.193       .  S
N918        C920   1.352       .  A
Mn919      Cl943   2.525       .  S
C920       C3304   1.460       .  S
C921       C3275   1.455       .  S
N922        N923   1.333       .  A
N922        N928   1.319       .  A
N922       Mn930   2.281       .  S
N923        C931   1.368       .  A
N924        N926   1.317       .  A
N924        N925   1.309       .  A
N924       Mn942   2.151       .  S
N925        C932   1.339       .  A
N926        N927   1.335       .  A
N926       Mn930   2.276       .  S
N927        C932   1.368       .  A
N928        N929   1.314       .  A
N928       Mn942   2.167       .  S
N929        C931   1.341       .  A
Mn930      Cl943   2.568       .  S
C931       C3656   1.482       .  S
C932       C4747   1.480       .  S
N933        N934   1.318       .  A
N933        N939   1.312       .  A
N933       Mn941   2.185       .  S
N934        C944   1.351       .  A
N935        N936   1.320       .  A
N935        N937   1.311       .  A
N935       Mn942   2.180       .  S
N936        C945   1.350       .  A
N937        N938   1.314       .  A
N937       Mn941   2.169       .  S
N938        C945   1.349       .  A
N939        N940   1.319       .  A
N939       Mn942   2.184       .  S
N940        C944   1.351       .  A
Mn941      Cl943   2.556       .  S
Mn942      Cl943   2.524       .  S
C944       C3288   1.458       .  S
C945       C3259   1.452       .  S
N946        N947   1.335       .  A
N946        N952   1.318       .  A
N946       Mn975   2.281       .  S
N947        C954   1.369       .  A
N948        N950   1.319       .  A
N948        N949   1.310       .  A
N948       Mn964   2.156       .  S
N949        C955   1.338       .  A
N950        N951   1.334       .  A
N950       Mn975   2.279       .  S
N951        C955   1.367       .  A
N952        N953   1.307       .  A
N952       Mn964   2.145       .  S
N953        C954   1.337       .  A
C954       C3915   1.478       .  S
C955       C3179   1.476       .  S
N956        N962   1.312       .  A
N956        N957   1.317       .  A
N956       Mn986   2.191       .  S
N957        C965   1.350       .  A
N958        N959   1.321       .  A
N958        N960   1.311       .  A
N958       Mn964   2.189       .  S
N959        C966   1.352       .  A
N960        N961   1.316       .  A
N960       Mn986   2.177       .  S
N961        C966   1.349       .  A
N962        N963   1.322       .  A
N962       Mn964   2.189       .  S
N963        C965   1.353       .  A
Mn964      Cl988   2.529       .  S
C965       C3224   1.463       .  S
C966       C3243   1.457       .  S
N967        N968   1.336       .  A
N967        N973   1.318       .  A
N967       Mn975   2.287       .  S
N968        C976   1.369       .  A
N969        N971   1.318       .  A
N969        N970   1.313       .  A
N969       Mn987   2.165       .  S
N970        C977   1.341       .  A
N971        N972   1.336       .  A
N971       Mn975   2.287       .  S
N972        C977   1.369       .  A
N973        N974   1.310       .  A
N973       Mn987   2.150       .  S
N974        C976   1.337       .  A
Mn975      Cl988   2.574       .  S
C976       C3192   1.477       .  S
C977       C3675   1.485       .  S
N978        N979   1.315       .  A
N978        N984   1.313       .  A
N978       Mn986   2.184       .  S
N979        C989   1.349       .  A
N980        N981   1.322       .  A
N980        N982   1.312       .  A
N980       Mn987   2.191       .  S
N981        C990   1.353       .  A
N982        N983   1.313       .  A
N982       Mn986   2.167       .  S
N983        C990   1.347       .  A
N984        N985   1.321       .  A
N984       Mn987   2.182       .  S
N985        C989   1.351       .  A
Mn986      Cl988   2.538       .  S
Mn987      Cl988   2.534       .  S
C989       C3256   1.454       .  S
C990       C3211   1.455       .  S
N991        N992   1.319       .  A
N991        N997   1.312       .  A
N991      Mn1020   2.189       .  S
N992        C999   1.351       .  A
N993        N995   1.312       .  A
N993        N994   1.321       .  A
N993      Mn1009   2.190       .  S
N994       C1000   1.353       .  A
N995        N996   1.317       .  A
N995      Mn1020   2.185       .  S
N996       C1000   1.350       .  A
N997        N998   1.321       .  A
N997      Mn1009   2.190       .  S
N998        C999   1.352       .  A
C999       C3147   1.464       .  S
C1000      C3160   1.461       .  S
N1001      N1007   1.318       .  A
N1001      N1002   1.338       .  A
N1001     Mn1031   2.294       .  S
N1002      C1010   1.371       .  A
N1003      N1004   1.308       .  A
N1003      N1005   1.318       .  A
N1003     Mn1009   2.160       .  S
N1004      C1011   1.340       .  A
N1005      N1006   1.336       .  A
N1005     Mn1031   2.275       .  S
N1006      C1011   1.368       .  A
N1007      N1008   1.310       .  A
N1007     Mn1009   2.156       .  S
N1008      C1010   1.339       .  A
Mn1009    Cl1033   2.520       .  S
C1010      C3960   1.488       .  S
C1011      C4440   1.483       .  S
N1012      N1013   1.317       .  A
N1012      N1018   1.312       .  A
N1012     Mn1020   2.185       .  S
N1013      C1021   1.349       .  A
N1014      N1016   1.312       .  A
N1014      N1015   1.322       .  A
N1014     Mn1032   2.195       .  S
N1015      C1022   1.353       .  A
N1016      N1017   1.317       .  A
N1016     Mn1020   2.186       .  S
N1017      C1022   1.350       .  A
N1018      N1019   1.322       .  A
N1018     Mn1032   2.192       .  S
N1019      C1021   1.353       .  A
Mn1020    Cl1033   2.561       .  S
C1021      C3371   1.461       .  S
C1022      C3131   1.463       .  S
N1023      N1024   1.338       .  A
N1023      N1029   1.319       .  A
N1023     Mn1031   2.294       .  S
N1024      C1034   1.371       .  A
N1025      N1026   1.311       .  A
N1025      N1027   1.319       .  A
N1025     Mn1032   2.165       .  S
N1026      C1035   1.339       .  A
N1027      N1028   1.335       .  A
N1027     Mn1031   2.279       .  S
N1028      C1035   1.367       .  A
N1029      N1030   1.309       .  A
N1029     Mn1032   2.155       .  S
N1030      C1034   1.337       .  A
Mn1031    Cl1033   2.576       .  S
Mn1032    Cl1033   2.525       .  S
C1034      C4155   1.483       .  S
C1035      C3576   1.478       .  S
N1036      N1037   1.337       .  A
N1036      N1042   1.318       .  A
N1036     Mn1065   2.287       .  S
N1037      C1044   1.370       .  A
N1038      N1040   1.318       .  A
N1038      N1039   1.310       .  A
N1038     Mn1054   2.160       .  S
N1039      C1045   1.340       .  A
N1040      N1041   1.335       .  A
N1040     Mn1065   2.275       .  S
N1041      C1045   1.368       .  A
N1042      N1043   1.309       .  A
N1042     Mn1054   2.154       .  S
N1043      C1044   1.338       .  A
C1044      C4536   1.485       .  S
C1045      C3899   1.482       .  S
N1046      N1052   1.311       .  A
N1046      N1047   1.317       .  A
N1046     Mn1076   2.182       .  S
N1047      C1055   1.350       .  A
N1048      N1049   1.320       .  A
N1048      N1050   1.311       .  A
N1048     Mn1054   2.186       .  S
N1049      C1056   1.351       .  A
N1050      N1051   1.316       .  A
N1050     Mn1076   2.174       .  S
N1051      C1056   1.350       .  A
N1052      N1053   1.320       .  A
N1052     Mn1054   2.183       .  S
N1053      C1055   1.351       .  A
Mn1054    Cl1078   2.517       .  S
C1055      C3115   1.456       .  S
C1056      C3083   1.456       .  S
N1057      N1058   1.337       .  A
N1057      N1063   1.319       .  A
N1057     Mn1065   2.289       .  S
N1058      C1066   1.370       .  A
N1059      N1061   1.318       .  A
N1059      N1060   1.310       .  A
N1059     Mn1077   2.161       .  S
N1060      C1067   1.340       .  A
N1061      N1062   1.335       .  A
N1061     Mn1065   2.277       .  S
N1062      C1067   1.368       .  A
N1063      N1064   1.309       .  A
N1063     Mn1077   2.152       .  S
N1064      C1066   1.338       .  A
Mn1065    Cl1078   2.573       .  S
C1066      C3515   1.484       .  S
C1067      C4107   1.482       .  S
N1068      N1069   1.316       .  A
N1068      N1074   1.311       .  A
N1068     Mn1076   2.177       .  S
N1069      C1079   1.350       .  A
N1070      N1071   1.323       .  A
N1070      N1072   1.312       .  A
N1070     Mn1077   2.195       .  S
N1071      C1080   1.353       .  A
N1072      N1073   1.315       .  A
N1072     Mn1076   2.177       .  S
N1073      C1080   1.349       .  A
N1074      N1075   1.320       .  A
N1074     Mn1077   2.183       .  S
N1075      C1079   1.350       .  A
Mn1076    Cl1078   2.559       .  S
Mn1077    Cl1078   2.521       .  S
C1079      C3096   1.455       .  S
C1080      C3064   1.462       .  S
N1081      N1082   1.316       .  A
N1081      N1087   1.311       .  A
N1081     Mn1110   2.171       .  S
N1082      C1089   1.349       .  A
N1083      N1085   1.312       .  A
N1083      N1084   1.321       .  A
N1083     Mn1099   2.191       .  S
N1084      C1090   1.352       .  A
N1085      N1086   1.316       .  A
N1085     Mn1110   2.182       .  S
N1086      C1090   1.350       .  A
N1087      N1088   1.321       .  A
N1087     Mn1099   2.193       .  S
N1088      C1089   1.353       .  A
C1089      C3016   1.459       .  S
C1090      C3051   1.460       .  S
N1091      N1097   1.319       .  A
N1091      N1092   1.333       .  A
N1091     Mn1121   2.269       .  S
N1092      C1100   1.365       .  A
N1093      N1094   1.309       .  A
N1093      N1095   1.319       .  A
N1093     Mn1099   2.155       .  S
N1094      C1101   1.338       .  A
N1095      N1096   1.335       .  A
N1095     Mn1121   2.284       .  S
N1096      C1101   1.369       .  A
N1097      N1098   1.310       .  A
N1097     Mn1099   2.161       .  S
N1098      C1100   1.339       .  A
Mn1099    Cl1123   2.524       .  S
C1100      C4424   1.472       .  S
C1101      C5003   1.481       .  S
N1102      N1103   1.315       .  A
N1102      N1108   1.311       .  A
N1102     Mn1110   2.169       .  S
N1103      C1111   1.347       .  A
N1104      N1106   1.312       .  A
N1104      N1105   1.319       .  A
N1104     Mn1122   2.178       .  S
N1105      C1112   1.350       .  A
N1106      N1107   1.316       .  A
N1106     Mn1110   2.181       .  S
N1107      C1112   1.350       .  A
N1108      N1109   1.321       .  A
N1108     Mn1122   2.192       .  S
N1109      C1111   1.353       .  A
Mn1110    Cl1123   2.555       .  S
C1111      C3035   1.455       .  S
C1112      C3000   1.454       .  S
N1113      N1114   1.336       .  A
N1113      N1119   1.318       .  A
N1113     Mn1121   2.280       .  S
N1114      C1124   1.369       .  A
N1115      N1116   1.309       .  A
N1115      N1117   1.318       .  A
N1115     Mn1122   2.156       .  S
N1116      C1125   1.338       .  A
N1117      N1118   1.338       .  A
N1117     Mn1121   2.287       .  S
N1118      C1125   1.370       .  A
N1119      N1120   1.312       .  A
N1119     Mn1122   2.169       .  S
N1120      C1124   1.340       .  A
Mn1121    Cl1123   2.573       .  S
Mn1122    Cl1123   2.522       .  S
C1124      C4811   1.485       .  S
C1125      C4251   1.481       .  S
N1126      N1127   1.335       .  A
N1126      N1132   1.319       .  A
N1126     Mn1155   2.279       .  S
N1127      C1134   1.368       .  A
N1128      N1130   1.319       .  A
N1128      N1129   1.310       .  A
N1128     Mn1144   2.161       .  S
N1129      C1135   1.340       .  A
N1130      N1131   1.337       .  A
N1130     Mn1155   2.294       .  S
N1131      C1135   1.370       .  A
N1132      N1133   1.312       .  A
N1132     Mn1144   2.164       .  S
N1133      C1134   1.339       .  A
C1134      C4379   1.480       .  S
C1135      C2968   1.488       .  S
N1136      N1142   1.312       .  A
N1136      N1137   1.317       .  A
N1136     Mn1166   2.182       .  S
N1137      C1145   1.350       .  A
N1138      N1139   1.321       .  A
N1138      N1140   1.312       .  A
N1138     Mn1144   2.190       .  S
N1139      C1146   1.351       .  A
N1140      N1141   1.319       .  A
N1140     Mn1166   2.191       .  S
N1141      C1146   1.353       .  A
N1142      N1143   1.322       .  A
N1142     Mn1144   2.195       .  S
N1143      C1145   1.353       .  A
Mn1144    Cl1168   2.525       .  S
C1145      C2955   1.464       .  S
C1146      C2984   1.464       .  S
N1147      N1148   1.336       .  A
N1147      N1153   1.319       .  A
N1147     Mn1155   2.282       .  S
N1148      C1156   1.368       .  A
N1149      N1151   1.319       .  A
N1149      N1150   1.309       .  A
N1149     Mn1167   2.149       .  S
N1150      C1157   1.337       .  A
N1151      N1152   1.337       .  A
N1151     Mn1155   2.295       .  S
N1152      C1157   1.371       .  A
N1153      N1154   1.309       .  A
N1153     Mn1167   2.159       .  S
N1154      C1156   1.339       .  A
Mn1155    Cl1168   2.571       .  S
C1156      C2936   1.482       .  S
C1157      C4168   1.485       .  S
N1158      N1159   1.316       .  A
N1158      N1164   1.312       .  A
N1158     Mn1166   2.184       .  S
N1159      C1169   1.350       .  A
N1160      N1161   1.322       .  A
N1160      N1162   1.312       .  A
N1160     Mn1167   2.189       .  S
N1161      C1170   1.353       .  A
N1162      N1163   1.316       .  A
N1162     Mn1166   2.183       .  S
N1163      C1170   1.349       .  A
N1164      N1165   1.324       .  A
N1164     Mn1167   2.195       .  S
N1165      C1169   1.353       .  A
Mn1166    Cl1168   2.557       .  S
Mn1167    Cl1168   2.528       .  S
C1169      C3128   1.466       .  S
C1170      C3355   1.460       .  S
N1171      N1172   1.317       .  A
N1171      N1177   1.311       .  A
N1171     Mn1200   2.182       .  S
N1172      C1179   1.349       .  A
N1173      N1175   1.312       .  A
N1173      N1174   1.321       .  A
N1173     Mn1189   2.198       .  S
N1174      C1180   1.354       .  A
N1175      N1176   1.317       .  A
N1175     Mn1200   2.179       .  S
N1176      C1180   1.349       .  A
N1177      N1178   1.323       .  A
N1177     Mn1189   2.197       .  S
N1178      C1179   1.354       .  A
C1179      C2920   1.464       .  S
C1180      C3448   1.460       .  S
N1181      N1187   1.320       .  A
N1181      N1182   1.334       .  A
N1181     Mn1211   2.275       .  S
N1182      C1190   1.367       .  A
N1183      N1184   1.309       .  A
N1183      N1185   1.319       .  A
N1183     Mn1189   2.161       .  S
N1184      C1191   1.340       .  A
N1185      N1186   1.334       .  A
N1185     Mn1211   2.276       .  S
N1186      C1191   1.367       .  A
N1187      N1188   1.311       .  A
N1187     Mn1189   2.167       .  S
N1188      C1190   1.339       .  A
Mn1189    Cl1213   2.521       .  S
C1190      C2904   1.477       .  S
C1191      C4600   1.478       .  S
N1192      N1193   1.317       .  A
N1192      N1198   1.311       .  A
N1192     Mn1200   2.183       .  S
N1193      C1201   1.350       .  A
N1194      N1196   1.311       .  A
N1194      N1195   1.319       .  A
N1194     Mn1212   2.184       .  S
N1195      C1202   1.350       .  A
N1196      N1197   1.318       .  A
N1196     Mn1200   2.181       .  S
N1197      C1202   1.350       .  A
N1198      N1199   1.320       .  A
N1198     Mn1212   2.184       .  S
N1199      C1201   1.351       .  A
Mn1200    Cl1213   2.561       .  S
C1201      C2888   1.457       .  S
C1202      C3032   1.457       .  S
N1203      N1204   1.334       .  A
N1203      N1209   1.318       .  A
N1203     Mn1211   2.275       .  S
N1204      C1214   1.367       .  A
N1205      N1206   1.310       .  A
N1205      N1207   1.319       .  A
N1205     Mn1212   2.157       .  S
N1206      C1215   1.337       .  A
N1207      N1208   1.337       .  A
N1207     Mn1211   2.285       .  S
N1208      C1215   1.370       .  A
N1209      N1210   1.312       .  A
N1209     Mn1212   2.163       .  S
N1210      C1214   1.342       .  A
Mn1211    Cl1213   2.576       .  S
Mn1212    Cl1213   2.521       .  S
C1214      C4235   1.483       .  S
C1215      C2872   1.481       .  S
N1216      N1217   1.336       .  A
N1216      N1222   1.320       .  A
N1216     Mn1245   2.289       .  S
N1217      C1224   1.369       .  A
N1218      N1220   1.320       .  A
N1218      N1219   1.313       .  A
N1218     Mn1234   2.166       .  S
N1219      C1225   1.340       .  A
N1220      N1221   1.335       .  A
N1220     Mn1245   2.287       .  S
N1221      C1225   1.368       .  A
N1222      N1223   1.312       .  A
N1222     Mn1234   2.166       .  S
N1223      C1224   1.340       .  A
C1224      C4299   1.487       .  S
C1225      C2808   1.481       .  S
N1226      N1232   1.312       .  A
N1226      N1227   1.315       .  A
N1226     Mn1256   2.180       .  S
N1227      C1235   1.349       .  A
N1228      N1229   1.323       .  A
N1228      N1230   1.312       .  A
N1228     Mn1234   2.198       .  S
N1229      C1236   1.354       .  A
N1230      N1231   1.315       .  A
N1230     Mn1256   2.179       .  S
N1231      C1236   1.348       .  A
N1232      N1233   1.324       .  A
N1232     Mn1234   2.199       .  S
N1233      C1235   1.354       .  A
Mn1234    Cl1258   2.536       .  S
C1235      C2792   1.464       .  S
C1236      C2843   1.460       .  S
N1237      N1238   1.337       .  A
N1237      N1243   1.319       .  A
N1237     Mn1245   2.291       .  S
N1238      C1246   1.370       .  A
N1239      N1241   1.319       .  A
N1239      N1240   1.311       .  A
N1239     Mn1257   2.162       .  S
N1240      C1247   1.340       .  A
N1241      N1242   1.337       .  A
N1241     Mn1245   2.291       .  S
N1242      C1247   1.370       .  A
N1243      N1244   1.312       .  A
N1243     Mn1257   2.164       .  S
N1244      C1246   1.341       .  A
Mn1245    Cl1258   2.567       .  S
C1246      C2824   1.490       .  S
C1247      C4219   1.490       .  S
N1248      N1249   1.318       .  A
N1248      N1254   1.312       .  A
N1248     Mn1256   2.186       .  S
N1249      C1259   1.352       .  A
N1250      N1251   1.321       .  A
N1250      N1252   1.312       .  A
N1250     Mn1257   2.192       .  S
N1251      C1260   1.352       .  A
N1252      N1253   1.318       .  A
N1252     Mn1256   2.185       .  S
N1253      C1260   1.351       .  A
N1254      N1255   1.321       .  A
N1254     Mn1257   2.188       .  S
N1255      C1259   1.351       .  A
Mn1256    Cl1258   2.553       .  S
Mn1257    Cl1258   2.532       .  S
C1259      C2859   1.461       .  S
C1260      C3227   1.464       .  S
N1261      N1262   1.314       .  A
N1261      N1267   1.312       .  A
N1261     Mn1290   2.181       .  S
N1262      C1269   1.348       .  A
N1263      N1265   1.311       .  A
N1263      N1264   1.320       .  A
N1263     Mn1279   2.186       .  S
N1264      C1270   1.351       .  A
N1265      N1266   1.316       .  A
N1265     Mn1290   2.175       .  S
N1266      C1270   1.349       .  A
N1267      N1268   1.323       .  A
N1267     Mn1279   2.189       .  S
N1268      C1269   1.353       .  A
C1269      C2776   1.457       .  S
C1270      C2728   1.457       .  S
N1271      N1277   1.319       .  A
N1271      N1272   1.335       .  A
N1271     Mn1301   2.287       .  S
N1272      C1280   1.369       .  A
N1273      N1274   1.309       .  A
N1273      N1275   1.318       .  A
N1273     Mn1279   2.156       .  S
N1274      C1281   1.339       .  A
N1275      N1276   1.336       .  A
N1275     Mn1301   2.281       .  S
N1276      C1281   1.369       .  A
N1277      N1278   1.312       .  A
N1277     Mn1279   2.160       .  S
N1278      C1280   1.339       .  A
Mn1279    Cl1303   2.529       .  S
C1280      C2712   1.481       .  S
C1281      C2971   1.483       .  S
N1282      N1283   1.318       .  A
N1282      N1288   1.311       .  A
N1282     Mn1290   2.180       .  S
N1283      C1291   1.351       .  A
N1284      N1286   1.312       .  A
N1284      N1285   1.323       .  A
N1284     Mn1302   2.197       .  S
N1285      C1292   1.353       .  A
N1286      N1287   1.316       .  A
N1286     Mn1290   2.181       .  S
N1287      C1292   1.350       .  A
N1288      N1289   1.318       .  A
N1288     Mn1302   2.181       .  S
N1289      C1291   1.350       .  A
Mn1290    Cl1303   2.555       .  S
C1291      C2744   1.455       .  S
C1292      C2763   1.463       .  S
N1293      N1294   1.335       .  A
N1293      N1299   1.319       .  A
N1293     Mn1301   2.285       .  S
N1294      C1304   1.368       .  A
N1295      N1296   1.313       .  A
N1295      N1297   1.319       .  A
N1295     Mn1302   2.168       .  S
N1296      C1305   1.341       .  A
N1297      N1298   1.333       .  A
N1297     Mn1301   2.274       .  S
N1298      C1305   1.366       .  A
N1299      N1300   1.310       .  A
N1299     Mn1302   2.155       .  S
N1300      C1304   1.339       .  A
Mn1301    Cl1303   2.568       .  S
Mn1302    Cl1303   2.526       .  S
C1304      C2699   1.481       .  S
C1305      C2811   1.479       .  S
N1306      N1307   1.337       .  A
N1306      N1312   1.319       .  A
N1306     Mn1335   2.290       .  S
N1307      C1314   1.370       .  A
N1308      N1310   1.319       .  A
N1308      N1309   1.311       .  A
N1308     Mn1324   2.160       .  S
N1309      C1315   1.339       .  A
N1310      N1311   1.334       .  A
N1310     Mn1335   2.278       .  S
N1311      C1315   1.367       .  A
N1312      N1313   1.311       .  A
N1312     Mn1324   2.161       .  S
N1313      C1314   1.340       .  A
C1314      C3851   1.488       .  S
C1315      C2664   1.477       .  S
N1316      N1322   1.313       .  A
N1316      N1317   1.317       .  A
N1316     Mn1346   2.188       .  S
N1317      C1325   1.350       .  A
N1318      N1319   1.321       .  A
N1318      N1320   1.311       .  A
N1318     Mn1324   2.185       .  S
N1319      C1326   1.351       .  A
N1320      N1321   1.315       .  A
N1320     Mn1346   2.177       .  S
N1321      C1326   1.349       .  A
N1322      N1323   1.322       .  A
N1322     Mn1324   2.194       .  S
N1323      C1325   1.353       .  A
Mn1324    Cl1348   2.527       .  S
C1325      C2648   1.461       .  S
C1326      C3112   1.457       .  S
N1327      N1328   1.336       .  A
N1327      N1333   1.319       .  A
N1327     Mn1335   2.285       .  S
N1328      C1336   1.369       .  A
N1329      N1331   1.319       .  A
N1329      N1330   1.312       .  A
N1329     Mn1347   2.159       .  S
N1330      C1337   1.339       .  A
N1331      N1332   1.334       .  A
N1331     Mn1335   2.283       .  S
N1332      C1337   1.368       .  A
N1333      N1334   1.311       .  A
N1333     Mn1347   2.162       .  S
N1334      C1336   1.339       .  A
Mn1335    Cl1348   2.571       .  S
C1336      C2619   1.481       .  S
C1337      C3787   1.481       .  S
N1338      N1339   1.318       .  A
N1338      N1344   1.312       .  A
N1338     Mn1346   2.187       .  S
N1339      C1349   1.351       .  A
N1340      N1341   1.320       .  A
N1340      N1342   1.312       .  A
N1340     Mn1347   2.186       .  S
N1341      C1350   1.351       .  A
N1342      N1343   1.318       .  A
N1342     Mn1346   2.186       .  S
N1343      C1350   1.351       .  A
N1344      N1345   1.320       .  A
N1344     Mn1347   2.186       .  S
N1345      C1349   1.351       .  A
Mn1346    Cl1348   2.559       .  S
Mn1347    Cl1348   2.526       .  S
C1349      C2680   1.461       .  S
C1350      C2632   1.459       .  S
N1351      N1352   1.317       .  A
N1351      N1357   1.312       .  A
N1351     Mn1380   2.185       .  S
N1352      C1359   1.350       .  A
N1353      N1355   1.311       .  A
N1353      N1354   1.320       .  A
N1353     Mn1369   2.180       .  S
N1354      C1360   1.351       .  A
N1355      N1356   1.316       .  A
N1355     Mn1380   2.178       .  S
N1356      C1360   1.349       .  A
N1357      N1358   1.320       .  A
N1357     Mn1369   2.181       .  S
N1358      C1359   1.350       .  A
C1359      C2552   1.457       .  S
C1360      C2571   1.454       .  S
N1361      N1367   1.318       .  A
N1361      N1362   1.337       .  A
N1361     Mn1391   2.288       .  S
N1362      C1370   1.370       .  A
N1363      N1364   1.310       .  A
N1363      N1365   1.318       .  A
N1363     Mn1369   2.150       .  S
N1364      C1371   1.337       .  A
N1365      N1366   1.335       .  A
N1365     Mn1391   2.285       .  S
N1366      C1371   1.369       .  A
N1367      N1368   1.309       .  A
N1367     Mn1369   2.155       .  S
N1368      C1370   1.339       .  A
Mn1369    Cl1393   2.522       .  S
C1370      C2587   1.485       .  S
C1371      C3323   1.477       .  S
N1372      N1373   1.316       .  A
N1372      N1378   1.311       .  A
N1372     Mn1380   2.179       .  S
N1373      C1381   1.350       .  A
N1374      N1376   1.311       .  A
N1374      N1375   1.320       .  A
N1374     Mn1392   2.185       .  S
N1375      C1382   1.350       .  A
N1376      N1377   1.318       .  A
N1376     Mn1380   2.184       .  S
N1377      C1382   1.352       .  A
N1378      N1379   1.320       .  A
N1378     Mn1392   2.185       .  S
N1379      C1381   1.351       .  A
Mn1380    Cl1393   2.557       .  S
C1381      C2600   1.457       .  S
C1382      C2779   1.459       .  S
N1383      N1384   1.336       .  A
N1383      N1389   1.318       .  A
N1383     Mn1391   2.282       .  S
N1384      C1394   1.369       .  A
N1385      N1386   1.311       .  A
N1385      N1387   1.319       .  A
N1385     Mn1392   2.159       .  S
N1386      C1395   1.339       .  A
N1387      N1388   1.336       .  A
N1387     Mn1391   2.284       .  S
N1388      C1395   1.369       .  A
N1389      N1390   1.310       .  A
N1389     Mn1392   2.158       .  S
N1390      C1394   1.339       .  A
Mn1391    Cl1393   2.573       .  S
Mn1392    Cl1393   2.519       .  S
C1394      C2939   1.483       .  S
C1395      C2667   1.480       .  S
N1396      N1397   1.334       .  A
N1396      N1402   1.320       .  A
N1396     Mn1425   2.283       .  S
N1397      C1404   1.368       .  A
N1398      N1400   1.319       .  A
N1398      N1399   1.311       .  A
N1398     Mn1414   2.157       .  S
N1399      C1405   1.338       .  A
N1400      N1401   1.335       .  A
N1400     Mn1425   2.286       .  S
N1401      C1405   1.369       .  A
N1402      N1403   1.312       .  A
N1402     Mn1414   2.166       .  S
N1403      C1404   1.340       .  A
C1404      C5176   1.480       .  S
C1405      C2523   1.479       .  S
N1406      N1412   1.312       .  A
N1406      N1407   1.317       .  A
N1406     Mn1436   2.185       .  S
N1407      C1415   1.350       .  A
N1408      N1409   1.321       .  A
N1408      N1410   1.311       .  A
N1408     Mn1414   2.185       .  S
N1409      C1416   1.351       .  A
N1410      N1411   1.316       .  A
N1410     Mn1436   2.183       .  S
N1411      C1416   1.351       .  A
N1412      N1413   1.323       .  A
N1412     Mn1414   2.202       .  S
N1413      C1415   1.354       .  A
Mn1414    Cl1438   2.529       .  S
C1415      C3464   1.466       .  S
C1416      C2536   1.461       .  S
N1417      N1418   1.335       .  A
N1417      N1423   1.319       .  A
N1417     Mn1425   2.285       .  S
N1418      C1426   1.368       .  A
N1419      N1421   1.318       .  A
N1419      N1420   1.312       .  A
N1419     Mn1437   2.154       .  S
N1420      C1427   1.338       .  A
N1421      N1422   1.334       .  A
N1421     Mn1425   2.284       .  S
N1422      C1427   1.368       .  A
N1423      N1424   1.311       .  A
N1423     Mn1437   2.161       .  S
N1424      C1426   1.340       .  A
Mn1425    Cl1438   2.569       .  S
C1426      C2507   1.484       .  S
C1427      C4824   1.478       .  S
N1428      N1429   1.316       .  A
N1428      N1434   1.312       .  A
N1428     Mn1436   2.180       .  S
N1429      C1439   1.349       .  A
N1430      N1431   1.321       .  A
N1430      N1432   1.312       .  A
N1430     Mn1437   2.181       .  S
N1431      C1440   1.350       .  A
N1432      N1433   1.316       .  A
N1432     Mn1436   2.182       .  S
N1433      C1440   1.350       .  A
N1434      N1435   1.320       .  A
N1434     Mn1437   2.182       .  S
N1435      C1439   1.351       .  A
Mn1436    Cl1438   2.556       .  S
Mn1437    Cl1438   2.530       .  S
C1439      C3003   1.453       .  S
C1440      C2891   1.457       .  S
N1441      N1442   1.316       .  A
N1441      N1447   1.312       .  A
N1441     Mn1470   2.179       .  S
N1442      C1449   1.349       .  A
N1443      N1445   1.312       .  A
N1443      N1444   1.322       .  A
N1443     Mn1459   2.192       .  S
N1444      C1450   1.352       .  A
N1445      N1446   1.318       .  A
N1445     Mn1470   2.190       .  S
N1446      C1450   1.351       .  A
N1447      N1448   1.321       .  A
N1447     Mn1459   2.188       .  S
N1448      C1449   1.352       .  A
C1449      C2488   1.457       .  S
C1450      C2795   1.463       .  S
N1451      N1457   1.319       .  A
N1451      N1452   1.335       .  A
N1451     Mn1481   2.284       .  S
N1452      C1460   1.368       .  A
N1453      N1454   1.311       .  A
N1453      N1455   1.319       .  A
N1453     Mn1459   2.166       .  S
N1454      C1461   1.341       .  A
N1455      N1456   1.334       .  A
N1455     Mn1481   2.276       .  S
N1456      C1461   1.367       .  A
N1457      N1458   1.311       .  A
N1457     Mn1459   2.163       .  S
N1458      C1460   1.339       .  A
Mn1459    Cl1483   2.527       .  S
C1460      C2715   1.481       .  S
C1461      C4952   1.482       .  S
N1462      N1463   1.316       .  A
N1462      N1468   1.312       .  A
N1462     Mn1470   2.179       .  S
N1463      C1471   1.349       .  A
N1464      N1466   1.312       .  A
N1464      N1465   1.322       .  A
N1464     Mn1482   2.190       .  S
N1465      C1472   1.353       .  A
N1466      N1467   1.315       .  A
N1466     Mn1470   2.182       .  S
N1467      C1472   1.349       .  A
N1468      N1469   1.321       .  A
N1468     Mn1482   2.186       .  S
N1469      C1471   1.351       .  A
Mn1470    Cl1483   2.555       .  S
C1471      C3208   1.455       .  S
C1472      C3291   1.460       .  S
N1473      N1474   1.336       .  A
N1473      N1479   1.319       .  A
N1473     Mn1481   2.289       .  S
N1474      C1484   1.370       .  A
N1475      N1476   1.309       .  A
N1475      N1477   1.318       .  A
N1475     Mn1482   2.158       .  S
N1476      C1485   1.339       .  A
N1477      N1478   1.335       .  A
N1477     Mn1481   2.276       .  S
N1478      C1485   1.368       .  A
N1479      N1480   1.311       .  A
N1479     Mn1482   2.158       .  S
N1480      C1484   1.338       .  A
Mn1481    Cl1483   2.571       .  S
Mn1482    Cl1483   2.528       .  S
C1484      C4731   1.482       .  S
C1485      C2475   1.481       .  S
N1486      N1487   1.316       .  A
N1486      N1492   1.312       .  A
N1486     Mn1515   2.177       .  S
N1487      C1494   1.349       .  A
N1488      N1490   1.312       .  A
N1488      N1489   1.322       .  A
N1488     Mn1504   2.199       .  S
N1489      C1495   1.354       .  A
N1490      N1491   1.318       .  A
N1490     Mn1515   2.185       .  S
N1491      C1495   1.350       .  A
N1492      N1493   1.322       .  A
N1492     Mn1504   2.193       .  S
N1493      C1494   1.353       .  A
C1494      C2456   1.460       .  S
C1495      C2952   1.464       .  S
N1496      N1502   1.319       .  A
N1496      N1497   1.334       .  A
N1496     Mn1526   2.271       .  S
N1497      C1505   1.366       .  A
N1498      N1499   1.312       .  A
N1498      N1500   1.320       .  A
N1498     Mn1504   2.170       .  S
N1499      C1506   1.341       .  A
N1500      N1501   1.335       .  A
N1500     Mn1526   2.281       .  S
N1501      C1506   1.367       .  A
N1502      N1503   1.310       .  A
N1502     Mn1504   2.163       .  S
N1503      C1505   1.341       .  A
Mn1504    Cl1528   2.528       .  S
C1505      C2696   1.480       .  S
C1506      C4875   1.481       .  S
N1507      N1508   1.315       .  A
N1507      N1513   1.311       .  A
N1507     Mn1515   2.176       .  S
N1508      C1516   1.348       .  A
N1509      N1511   1.312       .  A
N1509      N1510   1.321       .  A
N1509     Mn1527   2.182       .  S
N1510      C1517   1.351       .  A
N1511      N1512   1.315       .  A
N1511     Mn1515   2.181       .  S
N1512      C1517   1.350       .  A
N1513      N1514   1.320       .  A
N1513     Mn1527   2.181       .  S
N1514      C1516   1.351       .  A
Mn1515    Cl1528   2.552       .  S
C1516      C3387   1.453       .  S
C1517      C2443   1.456       .  S
N1518      N1519   1.334       .  A
N1518      N1524   1.318       .  A
N1518     Mn1526   2.273       .  S
N1519      C1529   1.367       .  A
N1520      N1521   1.311       .  A
N1520      N1522   1.318       .  A
N1520     Mn1527   2.155       .  S
N1521      C1530   1.338       .  A
N1522      N1523   1.336       .  A
N1522     Mn1526   2.291       .  S
N1523      C1530   1.370       .  A
N1524      N1525   1.310       .  A
N1524     Mn1527   2.155       .  S
N1525      C1529   1.340       .  A
Mn1526    Cl1528   2.567       .  S
Mn1527    Cl1528   2.531       .  S
C1529      C4795   1.478       .  S
C1530      C2427   1.483       .  S
N1531      N1532   1.334       .  A
N1531      N1537   1.318       .  A
N1531     Mn1560   2.280       .  S
N1532      C1539   1.367       .  A
N1533      N1535   1.318       .  A
N1533      N1534   1.311       .  A
N1533     Mn1549   2.161       .  S
N1534      C1540   1.339       .  A
N1535      N1536   1.336       .  A
N1535     Mn1560   2.285       .  S
N1536      C1540   1.369       .  A
N1537      N1538   1.311       .  A
N1537     Mn1549   2.157       .  S
N1538      C1539   1.339       .  A
C1539      C3432   1.478       .  S
C1540      C2424   1.483       .  S
N1541      N1547   1.312       .  A
N1541      N1542   1.317       .  A
N1541     Mn1571   2.184       .  S
N1542      C1550   1.350       .  A
N1543      N1544   1.320       .  A
N1543      N1545   1.311       .  A
N1543     Mn1549   2.187       .  S
N1544      C1551   1.351       .  A
N1545      N1546   1.317       .  A
N1545     Mn1571   2.178       .  S
N1546      C1551   1.350       .  A
N1547      N1548   1.320       .  A
N1547     Mn1549   2.185       .  S
N1548      C1550   1.351       .  A
Mn1549    Cl1573   2.529       .  S
C1550      C2760   1.459       .  S
C1551      C2395   1.458       .  S
N1552      N1553   1.335       .  A
N1552      N1558   1.319       .  A
N1552     Mn1560   2.278       .  S
N1553      C1561   1.368       .  A
N1554      N1556   1.320       .  A
N1554      N1555   1.312       .  A
N1554     Mn1572   2.171       .  S
N1555      C1562   1.341       .  A
N1556      N1557   1.335       .  A
N1556     Mn1560   2.277       .  S
N1557      C1562   1.367       .  A
N1558      N1559   1.309       .  A
N1558     Mn1572   2.158       .  S
N1559      C1561   1.339       .  A
Mn1560    Cl1573   2.568       .  S
C1561      C3336   1.480       .  S
C1562      C2520   1.480       .  S
N1563      N1564   1.316       .  A
N1563      N1569   1.312       .  A
N1563     Mn1571   2.183       .  S
N1564      C1574   1.349       .  A
N1565      N1566   1.323       .  A
N1565      N1567   1.312       .  A
N1565     Mn1572   2.202       .  S
N1566      C1575   1.354       .  A
N1567      N1568   1.315       .  A
N1567     Mn1571   2.174       .  S
N1568      C1575   1.348       .  A
N1569      N1570   1.322       .  A
N1569     Mn1572   2.190       .  S
N1570      C1574   1.353       .  A
Mn1571    Cl1573   2.553       .  S
Mn1572    Cl1573   2.528       .  S
C1574      C2411   1.459       .  S
C1575      C2555   1.461       .  S
N1576      N1577   1.317       .  A
N1576      N1582   1.312       .  A
N1576     Mn1605   2.183       .  S
N1577      C1584   1.350       .  A
N1578      N1580   1.312       .  A
N1578      N1579   1.323       .  A
N1578     Mn1594   2.200       .  S
N1579      C1585   1.355       .  A
N1580      N1581   1.316       .  A
N1580     Mn1605   2.176       .  S
N1581      C1585   1.348       .  A
N1582      N1583   1.320       .  A
N1582     Mn1594   2.185       .  S
N1583      C1584   1.351       .  A
C1584      C2360   1.457       .  S
C1585      C2683   1.462       .  S
N1586      N1592   1.319       .  A
N1586      N1587   1.335       .  A
N1586     Mn1616   2.282       .  S
N1587      C1595   1.368       .  A
N1588      N1589   1.313       .  A
N1588      N1590   1.319       .  A
N1588     Mn1594   2.171       .  S
N1589      C1596   1.341       .  A
N1590      N1591   1.334       .  A
N1590     Mn1616   2.278       .  S
N1591      C1596   1.367       .  A
N1592      N1593   1.310       .  A
N1592     Mn1594   2.157       .  S
N1593      C1595   1.338       .  A
Mn1594    Cl1618   2.528       .  S
C1595      C3771   1.476       .  S
C1596      C5128   1.480       .  S
N1597      N1598   1.318       .  A
N1597      N1603   1.312       .  A
N1597     Mn1605   2.186       .  S
N1598      C1606   1.351       .  A
N1599      N1601   1.311       .  A
N1599      N1600   1.321       .  A
N1599     Mn1617   2.188       .  S
N1600      C1607   1.352       .  A
N1601      N1602   1.316       .  A
N1601     Mn1605   2.174       .  S
N1602      C1607   1.349       .  A
N1603      N1604   1.320       .  A
N1603     Mn1617   2.189       .  S
N1604      C1606   1.352       .  A
Mn1605    Cl1618   2.556       .  S
C1606      C3067   1.460       .  S
C1607      C2379   1.457       .  S
N1608      N1609   1.337       .  A
N1608      N1614   1.319       .  A
N1608     Mn1616   2.289       .  S
N1609      C1619   1.370       .  A
N1610      N1611   1.310       .  A
N1610      N1612   1.318       .  A
N1610     Mn1617   2.159       .  S
N1611      C1620   1.339       .  A
N1612      N1613   1.335       .  A
N1612     Mn1616   2.277       .  S
N1613      C1620   1.368       .  A
N1614      N1615   1.311       .  A
N1614     Mn1617   2.165       .  S
N1615      C1619   1.341       .  A
Mn1616    Cl1618   2.571       .  S
Mn1617    Cl1618   2.525       .  S
C1619      C4680   1.490       .  S
C1620      C3531   1.479       .  S
N1621      N1622   1.315       .  A
N1621      N1627   1.313       .  A
N1621     Mn1650   2.181       .  S
N1622      C1629   1.348       .  A
N1623      N1625   1.312       .  A
N1623      N1624   1.321       .  A
N1623     Mn1639   2.186       .  S
N1624      C1630   1.352       .  A
N1625      N1626   1.316       .  A
N1625     Mn1650   2.182       .  S
N1626      C1630   1.349       .  A
N1627      N1628   1.322       .  A
N1627     Mn1639   2.191       .  S
N1628      C1629   1.353       .  A
C1629      C2392   1.457       .  S
C1630      C2747   1.456       .  S
N1631      N1637   1.318       .  A
N1631      N1632   1.337       .  A
N1631     Mn1661   2.288       .  S
N1632      C1640   1.370       .  A
N1633      N1634   1.309       .  A
N1633      N1635   1.319       .  A
N1633     Mn1639   2.161       .  S
N1634      C1641   1.338       .  A
N1635      N1636   1.336       .  A
N1635     Mn1661   2.280       .  S
N1636      C1641   1.369       .  A
N1637      N1638   1.311       .  A
N1637     Mn1639   2.162       .  S
N1638      C1640   1.340       .  A
Mn1639    Cl1663   2.526       .  S
C1640      C2827   1.489       .  S
C1641      C3416   1.479       .  S
N1642      N1643   1.317       .  A
N1642      N1648   1.311       .  A
N1642     Mn1650   2.184       .  S
N1643      C1651   1.351       .  A
N1644      N1646   1.312       .  A
N1644      N1645   1.323       .  A
N1644     Mn1662   2.198       .  S
N1645      C1652   1.354       .  A
N1646      N1647   1.318       .  A
N1646     Mn1650   2.194       .  S
N1647      C1652   1.351       .  A
N1648      N1649   1.320       .  A
N1648     Mn1662   2.181       .  S
N1649      C1651   1.350       .  A
Mn1650    Cl1663   2.556       .  S
C1651      C2331   1.459       .  S
C1652      C2344   1.467       .  S
N1653      N1654   1.336       .  A
N1653      N1659   1.320       .  A
N1653     Mn1661   2.287       .  S
N1654      C1664   1.369       .  A
N1655      N1656   1.311       .  A
N1655      N1657   1.319       .  A
N1655     Mn1662   2.164       .  S
N1656      C1665   1.339       .  A
N1657      N1658   1.334       .  A
N1657     Mn1661   2.274       .  S
N1658      C1665   1.367       .  A
N1659      N1660   1.309       .  A
N1659     Mn1662   2.156       .  S
N1660      C1664   1.338       .  A
Mn1661    Cl1663   2.576       .  S
Mn1662    Cl1663   2.526       .  S
C1664      C2907   1.478       .  S
C1665      C3176   1.477       .  S
N1666      N1667   1.335       .  A
N1666      N1672   1.318       .  A
N1666     Mn1695   2.281       .  S
N1667      C1674   1.368       .  A
N1668      N1670   1.318       .  A
N1668      N1669   1.311       .  A
N1668     Mn1684   2.160       .  S
N1669      C1675   1.339       .  A
N1670      N1671   1.334       .  A
N1670     Mn1695   2.275       .  S
N1671      C1675   1.368       .  A
N1672      N1673   1.309       .  A
N1672     Mn1684   2.150       .  S
N1673      C1674   1.339       .  A
C1674      C4939   1.481       .  S
C1675      C4360   1.478       .  S
N1676      N1682   1.311       .  A
N1676      N1677   1.318       .  A
N1676     Mn1706   2.182       .  S
N1677      C1685   1.350       .  A
N1678      N1679   1.319       .  A
N1678      N1680   1.311       .  A
N1678     Mn1684   2.182       .  S
N1679      C1686   1.350       .  A
N1680      N1681   1.316       .  A
N1680     Mn1706   2.174       .  S
N1681      C1686   1.350       .  A
N1682      N1683   1.318       .  A
N1682     Mn1684   2.176       .  S
N1683      C1685   1.350       .  A
Mn1684    Cl1708   2.518       .  S
C1685      C2299   1.454       .  S
C1686      C2312   1.454       .  S
N1687      N1688   1.335       .  A
N1687      N1693   1.319       .  A
N1687     Mn1695   2.280       .  S
N1688      C1696   1.368       .  A
N1689      N1691   1.318       .  A
N1689      N1690   1.308       .  A
N1689     Mn1707   2.147       .  S
N1690      C1697   1.337       .  A
N1691      N1692   1.333       .  A
N1691     Mn1695   2.270       .  S
N1692      C1697   1.366       .  A
N1693      N1694   1.312       .  A
N1693     Mn1707   2.166       .  S
N1694      C1696   1.340       .  A
Mn1695    Cl1708   2.571       .  S
C1696      C4091   1.481       .  S
C1697      C4667   1.469       .  S
N1698      N1699   1.317       .  A
N1698      N1704   1.312       .  A
N1698     Mn1706   2.180       .  S
N1699      C1709   1.349       .  A
N1700      N1701   1.318       .  A
N1700      N1702   1.311       .  A
N1700     Mn1707   2.176       .  S
N1701      C1710   1.350       .  A
N1702      N1703   1.316       .  A
N1702     Mn1706   2.174       .  S
N1703      C1710   1.349       .  A
N1704      N1705   1.320       .  A
N1704     Mn1707   2.192       .  S
N1705      C1709   1.352       .  A
Mn1706    Cl1708   2.556       .  S
Mn1707    Cl1708   2.520       .  S
C1709      C2376   1.458       .  S
C1710      C3099   1.451       .  S
N1711      N1712   1.318       .  A
N1711      N1717   1.312       .  A
N1711     Mn1740   2.192       .  S
N1712      C1719   1.352       .  A
N1713      N1715   1.311       .  A
N1713      N1714   1.323       .  A
N1713     Mn1729   2.195       .  S
N1714      C1720   1.353       .  A
N1715      N1716   1.316       .  A
N1715     Mn1740   2.182       .  S
N1716      C1720   1.350       .  A
N1717      N1718   1.321       .  A
N1717     Mn1729   2.190       .  S
N1718      C1719   1.352       .  A
C1719      C2347   1.465       .  S
C1720      C2267   1.463       .  S
N1721      N1727   1.319       .  A
N1721      N1722   1.337       .  A
N1721     Mn1751   2.289       .  S
N1722      C1730   1.370       .  A
N1723      N1724   1.311       .  A
N1723      N1725   1.319       .  A
N1723     Mn1729   2.160       .  S
N1724      C1731   1.338       .  A
N1725      N1726   1.337       .  A
N1725     Mn1751   2.292       .  S
N1726      C1731   1.370       .  A
N1727      N1728   1.309       .  A
N1727     Mn1729   2.161       .  S
N1728      C1730   1.339       .  A
Mn1729    Cl1753   2.525       .  S
C1730      C2280   1.487       .  S
C1731      C2875   1.484       .  S
N1732      N1733   1.319       .  A
N1732      N1738   1.312       .  A
N1732     Mn1740   2.188       .  S
N1733      C1741   1.352       .  A
N1734      N1736   1.312       .  A
N1734      N1735   1.322       .  A
N1734     Mn1752   2.189       .  S
N1735      C1742   1.352       .  A
N1736      N1737   1.316       .  A
N1736     Mn1740   2.181       .  S
N1737      C1742   1.350       .  A
N1738      N1739   1.318       .  A
N1738     Mn1752   2.182       .  S
N1739      C1741   1.349       .  A
Mn1740    Cl1753   2.562       .  S
C1741      C2568   1.456       .  S
C1742      C2408   1.461       .  S
N1743      N1744   1.336       .  A
N1743      N1749   1.319       .  A
N1743     Mn1751   2.290       .  S
N1744      C1754   1.369       .  A
N1745      N1746   1.312       .  A
N1745      N1747   1.319       .  A
N1745     Mn1752   2.161       .  S
N1746      C1755   1.339       .  A
N1747      N1748   1.335       .  A
N1747     Mn1751   2.288       .  S
N1748      C1755   1.369       .  A
N1749      N1750   1.311       .  A
N1749     Mn1752   2.158       .  S
N1750      C1754   1.340       .  A
Mn1751    Cl1753   2.576       .  S
Mn1752    Cl1753   2.525       .  S
C1754      C2504   1.486       .  S
C1755      C2248   1.482       .  S
N1756      N1757   1.336       .  A
N1756      N1762   1.319       .  A
N1756     Mn1785   2.287       .  S
N1757      C1764   1.369       .  A
N1758      N1760   1.319       .  A
N1758      N1759   1.311       .  A
N1758     Mn1774   2.157       .  S
N1759      C1765   1.338       .  A
N1760      N1761   1.336       .  A
N1760     Mn1785   2.288       .  S
N1761      C1765   1.370       .  A
N1762      N1763   1.312       .  A
N1762     Mn1774   2.162       .  S
N1763      C1764   1.340       .  A
C1764      C5112   1.483       .  S
C1765      C2216   1.483       .  S
N1766      N1772   1.311       .  A
N1766      N1767   1.316       .  A
N1766     Mn1796   2.185       .  S
N1767      C1775   1.351       .  A
N1768      N1769   1.318       .  A
N1768      N1770   1.312       .  A
N1768     Mn1774   2.182       .  S
N1769      C1776   1.350       .  A
N1770      N1771   1.318       .  A
N1770     Mn1796   2.183       .  S
N1771      C1776   1.351       .  A
N1772      N1773   1.321       .  A
N1772     Mn1774   2.182       .  S
N1773      C1775   1.351       .  A
Mn1774    Cl1798   2.527       .  S
C1775      C2635   1.459       .  S
C1776      C2363   1.455       .  S
N1777      N1778   1.336       .  A
N1777      N1783   1.318       .  A
N1777     Mn1785   2.287       .  S
N1778      C1786   1.370       .  A
N1779      N1781   1.320       .  A
N1779      N1780   1.313       .  A
N1779     Mn1797   2.170       .  S
N1780      C1787   1.341       .  A
N1781      N1782   1.334       .  A
N1781     Mn1785   2.282       .  S
N1782      C1787   1.368       .  A
N1783      N1784   1.309       .  A
N1783     Mn1797   2.149       .  S
N1784      C1786   1.338       .  A
Mn1785    Cl1798   2.569       .  S
C1786      C2283   1.484       .  S
C1787      C4907   1.482       .  S
N1788      N1789   1.316       .  A
N1788      N1794   1.312       .  A
N1788     Mn1796   2.183       .  S
N1789      C1799   1.350       .  A
N1790      N1791   1.321       .  A
N1790      N1792   1.312       .  A
N1790     Mn1797   2.193       .  S
N1791      C1800   1.353       .  A
N1792      N1793   1.315       .  A
N1792     Mn1796   2.175       .  S
N1793      C1800   1.349       .  A
N1794      N1795   1.319       .  A
N1794     Mn1797   2.175       .  S
N1795      C1799   1.350       .  A
Mn1796    Cl1798   2.556       .  S
Mn1797    Cl1798   2.525       .  S
C1799      C2315   1.453       .  S
C1800      C2232   1.458       .  S
N1801      N1802   1.316       .  A
N1801      N1807   1.311       .  A
N1801     Mn1830   2.178       .  S
N1802      C1809   1.349       .  A
N1803      N1805   1.311       .  A
N1803      N1804   1.321       .  A
N1803     Mn1819   2.188       .  S
N1804      C1810   1.351       .  A
N1805      N1806   1.317       .  A
N1805     Mn1830   2.180       .  S
N1806      C1810   1.351       .  A
N1807      N1808   1.321       .  A
N1807     Mn1819   2.182       .  S
N1808      C1809   1.352       .  A
C1809      C3080   1.455       .  S
C1810      C2651   1.461       .  S
N1811      N1817   1.318       .  A
N1811      N1812   1.336       .  A
N1811     Mn1841   2.283       .  S
N1812      C1820   1.369       .  A
N1813      N1814   1.308       .  A
N1813      N1815   1.318       .  A
N1813     Mn1819   2.155       .  S
N1814      C1821   1.339       .  A
N1815      N1816   1.338       .  A
N1815     Mn1841   2.288       .  S
N1816      C1821   1.371       .  A
N1817      N1818   1.308       .  A
N1817     Mn1819   2.149       .  S
N1818      C1820   1.338       .  A
Mn1819    Cl1843   2.521       .  S
C1820      C2584   1.482       .  S
C1821      C4568   1.487       .  S
N1822      N1823   1.316       .  A
N1822      N1828   1.312       .  A
N1822     Mn1830   2.176       .  S
N1823      C1831   1.348       .  A
N1824      N1826   1.312       .  A
N1824      N1825   1.321       .  A
N1824     Mn1842   2.194       .  S
N1825      C1832   1.352       .  A
N1826      N1827   1.316       .  A
N1826     Mn1830   2.175       .  S
N1827      C1832   1.349       .  A
N1828      N1829   1.320       .  A
N1828     Mn1842   2.190       .  S
N1829      C1831   1.352       .  A
Mn1830    Cl1843   2.557       .  S
C1831      C2235   1.456       .  S
C1832      C2296   1.457       .  S
N1833      N1834   1.334       .  A
N1833      N1839   1.319       .  A
N1833     Mn1841   2.278       .  S
N1834      C1844   1.367       .  A
N1835      N1836   1.312       .  A
N1835      N1837   1.320       .  A
N1835     Mn1842   2.168       .  S
N1836      C1845   1.341       .  A
N1837      N1838   1.335       .  A
N1837     Mn1841   2.285       .  S
N1838      C1845   1.368       .  A
N1839      N1840   1.312       .  A
N1839     Mn1842   2.166       .  S
N1840      C1844   1.340       .  A
Mn1841    Cl1843   2.573       .  S
Mn1842    Cl1843   2.525       .  S
C1844      C4331   1.478       .  S
C1845      C2251   1.483       .  S
N1846      N1847   1.336       .  A
N1846      N1852   1.318       .  A
N1846     Mn1875   2.283       .  S
N1847      C1854   1.369       .  A
N1848      N1850   1.319       .  A
N1848      N1849   1.313       .  A
N1848     Mn1864   2.168       .  S
N1849      C1855   1.341       .  A
N1850      N1851   1.335       .  A
N1850     Mn1875   2.282       .  S
N1851      C1855   1.368       .  A
N1852      N1853   1.308       .  A
N1852     Mn1864   2.148       .  S
N1853      C1854   1.337       .  A
C1854      C3195   1.476       .  S
C1855      C2219   1.483       .  S
N1856      N1862   1.313       .  A
N1856      N1857   1.318       .  A
N1856     Mn1886   2.195       .  S
N1857      C1865   1.352       .  A
N1858      N1859   1.321       .  A
N1858      N1860   1.312       .  A
N1858     Mn1864   2.191       .  S
N1859      C1866   1.352       .  A
N1860      N1861   1.318       .  A
N1860     Mn1886   2.188       .  S
N1861      C1866   1.351       .  A
N1862      N1863   1.318       .  A
N1862     Mn1864   2.173       .  S
N1863      C1865   1.349       .  A
Mn1864    Cl1888   2.526       .  S
C1865      C2264   1.457       .  S
C1866      C2328   1.461       .  S
N1867      N1868   1.336       .  A
N1867      N1873   1.319       .  A
N1867     Mn1875   2.290       .  S
N1868      C1876   1.370       .  A
N1869      N1871   1.318       .  A
N1869      N1870   1.310       .  A
N1869     Mn1887   2.156       .  S
N1870      C1877   1.340       .  A
N1871      N1872   1.334       .  A
N1871     Mn1875   2.273       .  S
N1872      C1877   1.367       .  A
N1873      N1874   1.312       .  A
N1873     Mn1887   2.161       .  S
N1874      C1876   1.339       .  A
Mn1875    Cl1888   2.570       .  S
C1876      C2616   1.484       .  S
C1877      C2472   1.479       .  S
N1878      N1879   1.319       .  A
N1878      N1884   1.313       .  A
N1878     Mn1886   2.194       .  S
N1879      C1889   1.352       .  A
N1880      N1881   1.319       .  A
N1880      N1882   1.312       .  A
N1880     Mn1887   2.178       .  S
N1881      C1890   1.350       .  A
N1882      N1883   1.318       .  A
N1882     Mn1886   2.187       .  S
N1883      C1890   1.351       .  A
N1884      N1885   1.319       .  A
N1884     Mn1887   2.184       .  S
N1885      C1889   1.350       .  A
Mn1886    Cl1888   2.558       .  S
Mn1887    Cl1888   2.524       .  S
C1889      C2731   1.459       .  S
C1890      C2603   1.456       .  S
N1891      N1892   1.338       .  A
N1891      N1897   1.319       .  A
N1891     Mn1920   2.294       .  S
N1892      C1899   1.371       .  A
N1893      N1895   1.319       .  A
N1893      N1894   1.310       .  A
N1893     Mn1909   2.158       .  S
N1894      C1900   1.339       .  A
N1895      N1896   1.335       .  A
N1895     Mn1920   2.281       .  S
N1896      C1900   1.368       .  A
N1897      N1898   1.311       .  A
N1897     Mn1909   2.165       .  S
N1898      C1899   1.340       .  A
C1899      C4840   1.492       .  S
C1900      C4411   1.477       .  S
N1901      N1907   1.311       .  A
N1901      N1902   1.317       .  A
N1901     Mn1931   2.180       .  S
N1902      C1910   1.349       .  A
N1903      N1904   1.320       .  A
N1903      N1905   1.312       .  A
N1903     Mn1909   2.186       .  S
N1904      C1911   1.352       .  A
N1905      N1906   1.317       .  A
N1905     Mn1931   2.184       .  S
N1906      C1911   1.350       .  A
N1907      N1908   1.323       .  A
N1907     Mn1909   2.198       .  S
N1908      C1910   1.354       .  A
Mn1909    Cl1933   2.531       .  S
C1910      C2987   1.463       .  S
C1911      C2459   1.457       .  S
N1912      N1913   1.334       .  A
N1912      N1918   1.319       .  A
N1912     Mn1920   2.278       .  S
N1913      C1921   1.367       .  A
N1914      N1916   1.320       .  A
N1914      N1915   1.312       .  A
N1914     Mn1932   2.171       .  S
N1915      C1922   1.340       .  A
N1916      N1917   1.336       .  A
N1916     Mn1920   2.290       .  S
N1917      C1922   1.369       .  A
N1918      N1919   1.311       .  A
N1918     Mn1932   2.158       .  S
N1919      C1921   1.339       .  A
Mn1920    Cl1933   2.569       .  S
C1921      C4507   1.477       .  S
C1922      C4699   1.486       .  S
N1923      N1924   1.316       .  A
N1923      N1929   1.311       .  A
N1923     Mn1931   2.178       .  S
N1924      C1934   1.349       .  A
N1925      N1926   1.323       .  A
N1925      N1927   1.312       .  A
N1925     Mn1932   2.201       .  S
N1926      C1935   1.354       .  A
N1927      N1928   1.317       .  A
N1927     Mn1931   2.186       .  S
N1928      C1935   1.350       .  A
N1929      N1930   1.321       .  A
N1929     Mn1932   2.187       .  S
N1930      C1934   1.352       .  A
Mn1931    Cl1933   2.554       .  S
Mn1932    Cl1933   2.533       .  S
C1934      C2200   1.458       .  S
C1935      C3144   1.465       .  S
N1936      N1937   1.316       .  A
N1936      N1942   1.311       .  A
N1936     Mn1965   2.177       .  S
N1937      C1944   1.349       .  A
N1938      N1940   1.312       .  A
N1938      N1939   1.322       .  A
N1938     Mn1954   2.202       .  S
N1939      C1945   1.354       .  A
N1940      N1941   1.317       .  A
N1940     Mn1965   2.178       .  S
N1941      C1945   1.350       .  A
N1942      N1943   1.322       .  A
N1942     Mn1954   2.191       .  S
N1943      C1944   1.353       .  A
C1944      C2539   1.458       .  S
C1945      C3499   1.463       .  S
N1946      N1952   1.320       .  A
N1946      N1947   1.335       .  A
N1946     Mn1976   2.289       .  S
N1947      C1955   1.368       .  A
N1948      N1949   1.311       .  A
N1948      N1950   1.320       .  A
N1948     Mn1954   2.170       .  S
N1949      C1956   1.340       .  A
N1950      N1951   1.334       .  A
N1950     Mn1976   2.276       .  S
N1951      C1956   1.367       .  A
N1952      N1953   1.312       .  A
N1952     Mn1954   2.159       .  S
N1953      C1955   1.339       .  A
Mn1954    Cl1978   2.527       .  S
C1955      C3723   1.480       .  S
C1956      C5224   1.478       .  S
N1957      N1958   1.315       .  A
N1957      N1963   1.311       .  A
N1957     Mn1965   2.177       .  S
N1958      C1966   1.350       .  A
N1959      N1961   1.312       .  A
N1959      N1960   1.322       .  A
N1959     Mn1977   2.191       .  S
N1960      C1967   1.354       .  A
N1961      N1962   1.315       .  A
N1961     Mn1965   2.174       .  S
N1962      C1967   1.347       .  A
N1963      N1964   1.319       .  A
N1963     Mn1977   2.170       .  S
N1964      C1966   1.348       .  A
Mn1965    Cl1978   2.554       .  S
C1966      C2184   1.451       .  S
C1967      C3019   1.456       .  S
N1968      N1969   1.337       .  A
N1968      N1974   1.318       .  A
N1968     Mn1976   2.291       .  S
N1969      C1979   1.370       .  A
N1970      N1971   1.311       .  A
N1970      N1972   1.319       .  A
N1970     Mn1977   2.163       .  S
N1971      C1980   1.339       .  A
N1972      N1973   1.337       .  A
N1972     Mn1976   2.291       .  S
N1973      C1980   1.370       .  A
N1974      N1975   1.310       .  A
N1974     Mn1977   2.148       .  S
N1975      C1979   1.337       .  A
Mn1976    Cl1978   2.568       .  S
Mn1977    Cl1978   2.529       .  S
C1979      C5096   1.482       .  S
C1980      C3544   1.484       .  S
N1981      N1982   1.317       .  A
N1981      N1987   1.312       .  A
N1981     Mn2010   2.188       .  S
N1982      C1989   1.351       .  A
N1983      N1985   1.312       .  A
N1983      N1984   1.320       .  A
N1983     Mn1999   2.182       .  S
N1984      C1990   1.351       .  A
N1985      N1986   1.316       .  A
N1985     Mn2010   2.180       .  S
N1986      C1990   1.349       .  A
N1987      N1988   1.320       .  A
N1987     Mn1999   2.180       .  S
N1988      C1989   1.350       .  A
C1989      C3272   1.458       .  S
C1990      C2168   1.455       .  S
N1991      N1997   1.318       .  A
N1991      N1992   1.336       .  A
N1991     Mn2021   2.289       .  S
N1992      C2000   1.370       .  A
N1993      N1994   1.310       .  A
N1993      N1995   1.318       .  A
N1993     Mn1999   2.152       .  S
N1994      C2001   1.338       .  A
N1995      N1996   1.334       .  A
N1995     Mn2021   2.277       .  S
N1996      C2001   1.367       .  A
N1997      N1998   1.310       .  A
N1997     Mn1999   2.153       .  S
N1998      C2000   1.339       .  A
Mn1999    Cl2023   2.531       .  S
C2000      C4123   1.486       .  S
C2001      C5083   1.474       .  S
N2002      N2003   1.319       .  A
N2002      N2008   1.312       .  A
N2002     Mn2010   2.190       .  S
N2003      C2011   1.353       .  A
N2004      N2006   1.312       .  A
N2004      N2005   1.322       .  A
N2004     Mn2022   2.193       .  S
N2005      C2012   1.352       .  A
N2006      N2007   1.316       .  A
N2006     Mn2010   2.179       .  S
N2007      C2012   1.349       .  A
N2008      N2009   1.318       .  A
N2008     Mn2022   2.179       .  S
N2009      C2011   1.349       .  A
Mn2010    Cl2023   2.551       .  S
C2011      C2840   1.458       .  S
C2012      C2491   1.460       .  S
N2013      N2014   1.335       .  A
N2013      N2019   1.318       .  A
N2013     Mn2021   2.289       .  S
N2014      C2024   1.369       .  A
N2015      N2016   1.313       .  A
N2015      N2017   1.318       .  A
N2015     Mn2022   2.168       .  S
N2016      C2025   1.342       .  A
N2017      N2018   1.333       .  A
N2017     Mn2021   2.275       .  S
N2018      C2025   1.366       .  A
N2019      N2020   1.310       .  A
N2019     Mn2022   2.152       .  S
N2020      C2024   1.339       .  A
Mn2021    Cl2023   2.561       .  S
Mn2022    Cl2023   2.530       .  S
C2024      C4987   1.484       .  S
C2025      C4264   1.481       .  S
N2026      N2027   1.336       .  A
N2026      N2032   1.317       .  A
N2026     Mn2055   2.280       .  S
N2027      C2034   1.369       .  A
N2028      N2030   1.319       .  A
N2028      N2029   1.310       .  A
N2028     Mn2044   2.160       .  S
N2029      C2035   1.340       .  A
N2030      N2031   1.338       .  A
N2030     Mn2055   2.294       .  S
N2031      C2035   1.371       .  A
N2032      N2033   1.307       .  A
N2032     Mn2044   2.144       .  S
N2033      C2034   1.337       .  A
C2034      C4187   1.480       .  S
C2035      C3947   1.490       .  S
N2036      N2042   1.311       .  A
N2036      N2037   1.317       .  A
N2036     Mn2066   2.187       .  S
N2037      C2045   1.351       .  A
N2038      N2039   1.322       .  A
N2038      N2040   1.312       .  A
N2038     Mn2044   2.191       .  S
N2039      C2046   1.353       .  A
N2040      N2041   1.316       .  A
N2040     Mn2066   2.181       .  S
N2041      C2046   1.349       .  A
N2042      N2043   1.320       .  A
N2042     Mn2044   2.177       .  S
N2043      C2045   1.350       .  A
Mn2044    Cl2068   2.526       .  S
C2045      C3240   1.459       .  S
C2046      C2856   1.459       .  S
N2047      N2048   1.333       .  A
N2047      N2053   1.319       .  A
N2047     Mn2055   2.278       .  S
N2048      C2056   1.366       .  A
N2049      N2051   1.320       .  A
N2049      N2050   1.311       .  A
N2049     Mn2067   2.162       .  S
N2050      C2057   1.340       .  A
N2051      N2052   1.336       .  A
N2051     Mn2055   2.292       .  S
N2052      C2057   1.369       .  A
N2053      N2054   1.312       .  A
N2053     Mn2067   2.158       .  S
N2054      C2056   1.339       .  A
Mn2055    Cl2068   2.570       .  S
C2056      C4043   1.475       .  S
C2057      C4139   1.485       .  S
N2058      N2059   1.318       .  A
N2058      N2064   1.312       .  A
N2058     Mn2066   2.186       .  S
N2059      C2069   1.351       .  A
N2060      N2061   1.321       .  A
N2060      N2062   1.312       .  A
N2060     Mn2067   2.192       .  S
N2061      C2070   1.353       .  A
N2062      N2063   1.316       .  A
N2062     Mn2066   2.177       .  S
N2063      C2070   1.349       .  A
N2064      N2065   1.320       .  A
N2064     Mn2067   2.187       .  S
N2065      C2069   1.351       .  A
Mn2066    Cl2068   2.553       .  S
Mn2067    Cl2068   2.529       .  S
C2069      C2171   1.460       .  S
C2070      C3307   1.459       .  S
N2071      N2072   1.335       .  A
N2071      N2077   1.319       .  A
N2071     Mn2100   2.282       .  S
N2072      C2079   1.368       .  A
N2073      N2075   1.319       .  A
N2073      N2074   1.310       .  A
N2073     Mn2089   2.163       .  S
N2074      C2080   1.340       .  A
N2075      N2076   1.336       .  A
N2075     Mn2100   2.282       .  S
N2076      C2080   1.369       .  A
N2077      N2078   1.311       .  A
N2077     Mn2089   2.164       .  S
N2078      C2079   1.341       .  A
C2079      C4648   1.486       .  S
C2080      C3627   1.485       .  S
N2081      N2087   1.312       .  A
N2081      N2082   1.319       .  A
N2081     Mn2111   2.193       .  S
N2082      C2090   1.352       .  A
N2083      N2084   1.321       .  A
N2083      N2085   1.311       .  A
N2083     Mn2089   2.194       .  S
N2084      C2091   1.353       .  A
N2085      N2086   1.319       .  A
N2085     Mn2111   2.184       .  S
N2086      C2091   1.351       .  A
N2087      N2088   1.319       .  A
N2087     Mn2089   2.187       .  S
N2088      C2090   1.350       .  A
Mn2089    Cl2113   2.521       .  S
C2090      C3483   1.460       .  S
C2091      C2923   1.465       .  S
N2092      N2093   1.334       .  A
N2092      N2098   1.319       .  A
N2092     Mn2100   2.284       .  S
N2093      C2101   1.368       .  A
N2094      N2096   1.318       .  A
N2094      N2095   1.311       .  A
N2094     Mn2112   2.156       .  S
N2095      C2102   1.340       .  A
N2096      N2097   1.336       .  A
N2096     Mn2100   2.287       .  S
N2097      C2102   1.369       .  A
N2098      N2099   1.313       .  A
N2098     Mn2112   2.165       .  S
N2099      C2101   1.341       .  A
Mn2100    Cl2113   2.573       .  S
C2101      C3563   1.483       .  S
C2102      C4523   1.487       .  S
N2103      N2104   1.318       .  A
N2103      N2109   1.313       .  A
N2103     Mn2111   2.187       .  S
N2104      C2114   1.350       .  A
N2105      N2106   1.320       .  A
N2105      N2107   1.312       .  A
N2105     Mn2112   2.183       .  S
N2106      C2115   1.351       .  A
N2107      N2108   1.315       .  A
N2107     Mn2111   2.180       .  S
N2108      C2115   1.349       .  A
N2109      N2110   1.319       .  A
N2109     Mn2112   2.180       .  S
N2110      C2114   1.349       .  A
Mn2111    Cl2113   2.561       .  S
Mn2112    Cl2113   2.527       .  S
C2114      C3048   1.455       .  S
C2115      C2187   1.453       .  S
N2116      N2117   1.318       .  A
N2116      N2122   1.312       .  A
N2116     Mn2145   2.189       .  S
N2117      C2124   1.352       .  A
N2118      N2120   1.312       .  A
N2118      N2119   1.318       .  A
N2118     Mn2134   2.171       .  S
N2119      C2125   1.348       .  A
N2120      N2121   1.316       .  A
N2120     Mn2145   2.182       .  S
N2121      C2125   1.350       .  A
N2122      N2123   1.319       .  A
N2122     Mn2134   2.179       .  S
N2123      C2124   1.349       .  A
C2124      C2440   1.456       .  S
C2125      C3403   1.451       .  S
N2126      N2132   1.318       .  A
N2126      N2127   1.335       .  A
N2126     Mn2156   2.283       .  S
N2127      C2135   1.369       .  A
N2128      N2129   1.309       .  A
N2128      N2130   1.317       .  A
N2128     Mn2134   2.142       .  S
N2129      C2136   1.337       .  A
N2130      N2131   1.337       .  A
N2130     Mn2156   2.293       .  S
N2131      C2136   1.371       .  A
N2132      N2133   1.310       .  A
N2132     Mn2134   2.153       .  S
N2133      C2135   1.339       .  A
Mn2134    Cl2158   2.519       .  S
C2135      C3835   1.481       .  S
C2136      C4760   1.485       .  S
N2137      N2138   1.316       .  A
N2137      N2143   1.313       .  A
N2137     Mn2145   2.181       .  S
N2138      C2146   1.349       .  A
N2139      N2141   1.312       .  A
N2139      N2140   1.318       .  A
N2139     Mn2157   2.179       .  S
N2140      C2147   1.349       .  A
N2141      N2142   1.318       .  A
N2141     Mn2145   2.186       .  S
N2142      C2147   1.352       .  A
N2143      N2144   1.322       .  A
N2143     Mn2157   2.197       .  S
N2144      C2146   1.354       .  A
Mn2145    Cl2158   2.552       .  S
C2146      C3163   1.462       .  S
C2147      C2203   1.455       .  S
N2148      N2149   1.337       .  A
N2148      N2154   1.318       .  A
N2148     Mn2156   2.287       .  S
N2149      C2159   1.370       .  A
N2150      N2151   1.312       .  A
N2150      N2152   1.319       .  A
N2150     Mn2157   2.161       .  S
N2151      C2160   1.341       .  A
N2152      N2153   1.336       .  A
N2152     Mn2156   2.288       .  S
N2153      C2160   1.368       .  A
N2154      N2155   1.310       .  A
N2154     Mn2157   2.158       .  S
N2155      C2159   1.339       .  A
Mn2156    Cl2158   2.584       .  S
Mn2157    Cl2158   2.520       .  S
C2159      C4712   1.486       .  S
C2160      C4075   1.486       .  S
C2161      C2166   1.382       .  A
C2161      C2162   1.396       .  A
C2161      O2167   1.312       .  A
C2162      C2163   1.395       .  A
C2162      H2173   1.083       .  S
C2163      C2172   1.355   1_455  A
C2163      C2164   1.382   1_455  A
C2164      C2165   1.404   1_655  A
C2164      O2170   1.318       .  A
C2165      C2166   1.403       .  A
C2165      H2174   1.082   1_455  S
C2166      C2169   1.363   1_554  A
O2167      C2168   1.325   1_554  A
C2168      C2169   1.390       .  A
C2169      H2175   1.083       .  S
O2170      C2171   1.330       .  A
C2171      C2172   1.386       .  A
C2172      H2176   1.083   1_655  S
C2177      C2182   1.383   1_565  A
C2177      C2178   1.403   1_565  A
C2177      O2183   1.317       .  A
C2178      C2179   1.402   1_455  A
C2178      H2189   1.082   1_445  S
C2179      C2188   1.362       .  A
C2179      C2180   1.383   1_655  A
C2180      C2181   1.393       .  A
C2180      O2186   1.310   1_455  A
C2181      C2182   1.392       .  A
C2181      H2190   1.083       .  S
C2182      C2185   1.350   1_545  A
O2183      C2184   1.329       .  A
C2184      C2185   1.383       .  A
C2185      H2191   1.083   1_565  S
O2186      C2187   1.324       .  A
C2187      C2188   1.390       .  A
C2188      H2192   1.083       .  S
C2193      C2198   1.382       .  A
C2193      C2194   1.403       .  A
C2193      O2199   1.319   1_554  A
C2194      C2195   1.403       .  A
C2194      H2205   1.082       .  S
C2195      C2204   1.361   1_545  A
C2195      C2196   1.383       .  A
C2196      C2197   1.395       .  A
C2196      O2202   1.312       .  A
C2197      C2198   1.395       .  A
C2197      H2206   1.083       .  S
C2198      C2201   1.352       .  A
O2199      C2200   1.329       .  A
C2200      C2201   1.385   1_556  A
C2201      H2207   1.083       .  S
O2202      C2203   1.325   1_545  A
C2203      C2204   1.390       .  A
C2204      H2208   1.083       .  S
C2209      C2214   1.378       .  A
C2209      C2210   1.410       .  A
C2209      O2215   1.316       .  A
C2210      C2211   1.405       .  A
C2210      H2221   1.082       .  S
C2211      C2220   1.376       .  A
C2211      C2212   1.378       .  A
C2212      C2213   1.412       .  A
C2212      O2218   1.318       .  A
C2213      C2214   1.406       .  A
C2213      H2222   1.082       .  S
C2214      C2217   1.378       .  A
O2215      C2216   1.335       .  A
C2216      C2217   1.393       .  A
C2217      H2223   1.082       .  S
O2218      C2219   1.335       .  A
C2219      C2220   1.393       .  A
C2220      H2224   1.082       .  S
C2225      C2230   1.382       .  A
C2225      C2226   1.402       .  A
C2225      O2231   1.318       .  A
C2226      C2227   1.401       .  A
C2226      H2237   1.082       .  S
C2227      C2236   1.361       .  A
C2227      C2228   1.382       .  A
C2228      C2229   1.397       .  A
C2228      O2234   1.312       .  A
C2229      C2230   1.396       .  A
C2229      H2238   1.083       .  S
C2230      C2233   1.354       .  A
O2231      C2232   1.329       .  A
C2232      C2233   1.387       .  A
C2233      H2239   1.083       .  S
O2234      C2235   1.326       .  A
C2235      C2236   1.388       .  A
C2236      H2240   1.083       .  S
C2241      C2246   1.378       .  A
C2241      C2242   1.412       .  A
C2241      O2247   1.317       .  A
C2242      C2243   1.407       .  A
C2242      H2253   1.082       .  S
C2243      C2252   1.378       .  A
C2243      C2244   1.378       .  A
C2244      C2245   1.409       .  A
C2244      O2250   1.316       .  A
C2245      C2246   1.404       .  A
C2245      H2254   1.082       .  S
C2246      C2249   1.375       .  A
O2247      C2248   1.336       .  A
C2248      C2249   1.392       .  A
C2249      H2255   1.082       .  S
O2250      C2251   1.334       .  A
C2251      C2252   1.394       .  A
C2252      H2256   1.082       .  S
C2257      C2262   1.383       .  A
C2257      C2258   1.395       .  A
C2257      O2263   1.313       .  A
C2258      C2259   1.395       .  A
C2258      H2269   1.083       .  S
C2259      C2268   1.353       .  A
C2259      C2260   1.382       .  A
C2260      C2261   1.404       .  A
C2260      O2266   1.321       .  A
C2261      C2262   1.404       .  A
C2261      H2270   1.082       .  S
C2262      C2265   1.362       .  A
O2263      C2264   1.325       .  A
C2264      C2265   1.390       .  A
C2265      H2271   1.083       .  S
O2266      C2267   1.331       .  A
C2267      C2268   1.386       .  A
C2268      H2272   1.083       .  S
C2273      C2278   1.380       .  A
C2273      C2274   1.406       .  A
C2273      O2279   1.333       .  A
C2274      C2275   1.411       .  A
C2274      H2285   1.082       .  S
C2275      C2284   1.356       .  A
C2275      C2276   1.381       .  A
C2276      C2277   1.403       .  A
C2276      O2282   1.330       .  A
C2277      C2278   1.408       .  A
C2277      H2286   1.082       .  S
C2278      C2281   1.353       .  A
O2279      C2280   1.334       .  A
C2280      C2281   1.395       .  A
C2281      H2287   1.083       .  S
O2282      C2283   1.331       .  A
C2283      C2284   1.397       .  A
C2284      H2288   1.083       .  S
C2289      C2294   1.382       .  A
C2289      C2290   1.401       .  A
C2289      O2295   1.317       .  A
C2290      C2291   1.400       .  A
C2290      H2301   1.082       .  S
C2291      C2300   1.358       .  A
C2291      C2292   1.382       .  A
C2292      C2293   1.396       .  A
C2292      O2298   1.313       .  A
C2293      C2294   1.396       .  A
C2293      H2302   1.083       .  S
C2294      C2297   1.354       .  A
O2295      C2296   1.328       .  A
C2296      C2297   1.387       .  A
C2297      H2303   1.083       .  S
O2298      C2299   1.326       .  A
C2299      C2300   1.388       .  A
C2300      H2304   1.083       .  S
C2305      C2310   1.382       .  A
C2305      C2306   1.402       .  A
C2305      O2311   1.316       .  A
C2306      C2307   1.401       .  A
C2306      H2317   1.082       .  S
C2307      C2316   1.361       .  A
C2307      C2308   1.382       .  A
C2308      C2309   1.395       .  A
C2308      O2314   1.311       .  A
C2309      C2310   1.394       .  A
C2309      H2318   1.083       .  S
C2310      C2313   1.353       .  A
O2311      C2312   1.329       .  A
C2312      C2313   1.385       .  A
C2313      H2319   1.083       .  S
O2314      C2315   1.324       .  A
C2315      C2316   1.390       .  A
C2316      H2320   1.083       .  S
C2321      C2326   1.382       .  A
C2321      C2322   1.397       .  A
C2321      O2327   1.313       .  A
C2322      C2323   1.396       .  A
C2322      H2333   1.082       .  S
C2323      C2332   1.355       .  A
C2323      C2324   1.382       .  A
C2324      C2325   1.404       .  A
C2324      O2330   1.319       .  A
C2325      C2326   1.404       .  A
C2325      H2334   1.082       .  S
C2326      C2329   1.363       .  A
O2327      C2328   1.326       .  A
C2328      C2329   1.391       .  A
C2329      H2335   1.083       .  S
O2330      C2331   1.330       .  A
C2331      C2332   1.386       .  A
C2332      H2336   1.083       .  S
C2337      C2342   1.381       .  A
C2337      C2338   1.398       .  A
C2337      O2343   1.314       .  A
C2338      C2339   1.397       .  A
C2338      H2349   1.083       .  S
C2339      C2348   1.356       .  A
C2339      C2340   1.381       .  A
C2340      C2341   1.407       .  A
C2340      O2346   1.321       .  A
C2341      C2342   1.406       .  A
C2341      H2350   1.082       .  S
C2342      C2345   1.367       .  A
O2343      C2344   1.327       .  A
C2344      C2345   1.393       .  A
C2345      H2351   1.082       .  S
O2346      C2347   1.331       .  A
C2347      C2348   1.386       .  A
C2348      H2352   1.083       .  S
C2353      C2358   1.382       .  A
C2353      C2354   1.400       .  A
C2353      O2359   1.317       .  A
C2354      C2355   1.400       .  A
C2354      H2365   1.082       .  S
C2355      C2364   1.358       .  A
C2355      C2356   1.382       .  A
C2356      C2357   1.397       .  A
C2356      O2362   1.315       .  A
C2357      C2358   1.397       .  A
C2357      H2366   1.083       .  S
C2358      C2361   1.355       .  A
O2359      C2360   1.328       .  A
C2360      C2361   1.386       .  A
C2361      H2367   1.083       .  S
O2362      C2363   1.327       .  A
C2363      C2364   1.388       .  A
C2364      H2368   1.083       .  S
C2369      C2374   1.382       .  A
C2369      C2370   1.397       .  A
C2369      O2375   1.314       .  A
C2370      C2371   1.397       .  A
C2370      H2381   1.083       .  S
C2371      C2380   1.354       .  A
C2371      C2372   1.382       .  A
C2372      C2373   1.402       .  A
C2372      O2378   1.318       .  A
C2373      C2374   1.401       .  A
C2373      H2382   1.082       .  S
C2374      C2377   1.361       .  A
O2375      C2376   1.327       .  A
C2376      C2377   1.389       .  A
C2377      H2383   1.083       .  S
O2378      C2379   1.329       .  A
C2379      C2380   1.387       .  A
C2380      H2384   1.083       .  S
C2385      C2390   1.382       .  A
C2385      C2386   1.395       .  A
C2385      O2391   1.310       .  A
C2386      C2387   1.394       .  A
C2386      H2397   1.083       .  S
C2387      C2396   1.353       .  A
C2387      C2388   1.382       .  A
C2388      C2389   1.405       .  A
C2388      O2394   1.318       .  A
C2389      C2390   1.403       .  A
C2389      H2398   1.082       .  S
C2390      C2393   1.366       .  A
O2391      C2392   1.325       .  A
C2392      C2393   1.391       .  A
C2393      H2399   1.082       .  S
O2394      C2395   1.330       .  A
C2395      C2396   1.385       .  A
C2396      H2400   1.083       .  S
C2401      C2406   1.382       .  A
C2401      C2402   1.405       .  A
C2401      O2407   1.320       .  A
C2402      C2403   1.404       .  A
C2402      H2413   1.082       .  S
C2403      C2412   1.365       .  A
C2403      C2404   1.382       .  A
C2404      C2405   1.395       .  A
C2404      O2410   1.311       .  A
C2405      C2406   1.394       .  A
C2405      H2414   1.083       .  S
C2406      C2409   1.353       .  A
O2407      C2408   1.331       .  A
C2408      C2409   1.385       .  A
C2409      H2415   1.083       .  S
O2410      C2411   1.325       .  A
C2411      C2412   1.391       .  A
C2412      H2416   1.082       .  S
C2417      C2422   1.378       .  A
C2417      C2418   1.410       .  A
C2417      O2423   1.316       .  A
C2418      C2419   1.405       .  A
C2418      H2429   1.082       .  S
C2419      C2428   1.377       .  A
C2419      C2420   1.378       .  A
C2420      C2421   1.411       .  A
C2420      O2426   1.316       .  A
C2421      C2422   1.406       .  A
C2421      H2430   1.082       .  S
C2422      C2425   1.378       .  A
O2423      C2424   1.335       .  A
C2424      C2425   1.394       .  A
C2425      H2431   1.082       .  S
O2426      C2427   1.335       .  A
C2427      C2428   1.393       .  A
C2428      H2432   1.082       .  S
C2433      C2438   1.383   1_545  A
C2433      C2434   1.395       .  A
C2433      O2439   1.313       .  A
C2434      C2435   1.395       .  A
C2434      H2445   1.083       .  S
C2435      C2444   1.352       .  A
C2435      C2436   1.383       .  A
C2436      C2437   1.403       .  A
C2436      O2442   1.318       .  A
C2437      C2438   1.402   1_545  A
C2437      H2446   1.082   1_545  S
C2438      C2441   1.361       .  A
O2439      C2440   1.325   1_545  A
C2440      C2441   1.390       .  A
C2441      H2447   1.083       .  S
O2442      C2443   1.329       .  A
C2443      C2444   1.385       .  A
C2444      H2448   1.083       .  S
C2449      C2454   1.381       .  A
C2449      C2450   1.403       .  A
C2449      O2455   1.319       .  A
C2450      C2451   1.403       .  A
C2450      H2461   1.082       .  S
C2451      C2460   1.362   1_554  A
C2451      C2452   1.382       .  A
C2452      C2453   1.396       .  A
C2452      O2458   1.312       .  A
C2453      C2454   1.396       .  A
C2453      H2462   1.083       .  S
C2454      C2457   1.354       .  A
O2455      C2456   1.330       .  A
C2456      C2457   1.387       .  A
C2457      H2463   1.083       .  S
O2458      C2459   1.326   1_554  A
C2459      C2460   1.390       .  A
C2460      H2464   1.083       .  S
C2465      C2470   1.381       .  A
C2465      C2466   1.402       .  A
C2465      O2471   1.328       .  A
C2466      C2467   1.406       .  A
C2466      H2477   1.082       .  S
C2467      C2476   1.351       .  A
C2467      C2468   1.381       .  A
C2468      C2469   1.405       .  A
C2468      O2474   1.331       .  A
C2469      C2470   1.410       .  A
C2469      H2478   1.082       .  S
C2470      C2473   1.356       .  A
O2471      C2472   1.331       .  A
C2472      C2473   1.395       .  A
C2473      H2479   1.083       .  S
O2474      C2475   1.333       .  A
C2475      C2476   1.394       .  A
C2476      H2480   1.083       .  S
C2481      C2486   1.382       .  A
C2481      C2482   1.396       .  A
C2481      O2487   1.313       .  A
C2482      C2483   1.396       .  A
C2482      H2493   1.083       .  S
C2483      C2492   1.354       .  A
C2483      C2484   1.382       .  A
C2484      C2485   1.403       .  A
C2484      O2490   1.319   1_554  A
C2485      C2486   1.403       .  A
C2485      H2494   1.082       .  S
C2486      C2489   1.362       .  A
O2487      C2488   1.326       .  A
C2488      C2489   1.390       .  A
C2489      H2495   1.082       .  S
O2490      C2491   1.330       .  A
C2491      C2492   1.387   1_556  A
C2492      H2496   1.083       .  S
C2497      C2502   1.381       .  A
C2497      C2498   1.404       .  A
C2497      O2503   1.330       .  A
C2498      C2499   1.409       .  A
C2498      H2509   1.082       .  S
C2499      C2508   1.356       .  A
C2499      C2500   1.381       .  A
C2500      C2501   1.405       .  A
C2500      O2506   1.331       .  A
C2501      C2502   1.410       .  A
C2501      H2510   1.082       .  S
C2502      C2505   1.357       .  A
O2503      C2504   1.332       .  A
C2504      C2505   1.397       .  A
C2505      H2511   1.083       .  S
O2506      C2507   1.333       .  A
C2507      C2508   1.396       .  A
C2508      H2512   1.083       .  S
C2513      C2518   1.378       .  A
C2513      C2514   1.408       .  A
C2513      O2519   1.314       .  A
C2514      C2515   1.402       .  A
C2514      H2525   1.082       .  S
C2515      C2524   1.375       .  A
C2515      C2516   1.378       .  A
C2516      C2517   1.412       .  A
C2516      O2522   1.316       .  A
C2517      C2518   1.406       .  A
C2517      H2526   1.082       .  S
C2518      C2521   1.378       .  A
O2519      C2520   1.333       .  A
C2520      C2521   1.395       .  A
C2521      H2527   1.082       .  S
O2522      C2523   1.335       .  A
C2523      C2524   1.391       .  A
C2524      H2528   1.082       .  S
C2529      C2534   1.381       .  A
C2529      C2530   1.406       .  A
C2529      O2535   1.320       .  A
C2530      C2531   1.405       .  A
C2530      H2541   1.082       .  S
C2531      C2540   1.365   1_545  A
C2531      C2532   1.382       .  A
C2532      C2533   1.395       .  A
C2532      O2538   1.311       .  A
C2533      C2534   1.394       .  A
C2533      H2542   1.083       .  S
C2534      C2537   1.352       .  A
O2535      C2536   1.331       .  A
C2536      C2537   1.385       .  A
C2537      H2543   1.083       .  S
O2538      C2539   1.325   1_545  A
C2539      C2540   1.391       .  A
C2540      H2544   1.082       .  S
C2545      C2550   1.382       .  A
C2545      C2546   1.396       .  A
C2545      O2551   1.312       .  A
C2546      C2547   1.395       .  A
C2546      H2557   1.083       .  S
C2547      C2556   1.353       .  A
C2547      C2548   1.382       .  A
C2548      C2549   1.404       .  A
C2548      O2554   1.320       .  A
C2549      C2550   1.404       .  A
C2549      H2558   1.082       .  S
C2550      C2553   1.362       .  A
O2551      C2552   1.325       .  A
C2552      C2553   1.390       .  A
C2553      H2559   1.083       .  S
O2554      C2555   1.330       .  A
C2555      C2556   1.387       .  A
C2556      H2560   1.083       .  S
C2561      C2566   1.382       .  A
C2561      C2562   1.401       .  A
C2561      O2567   1.316       .  A
C2562      C2563   1.400       .  A
C2562      H2573   1.082       .  S
C2563      C2572   1.360       .  A
C2563      C2564   1.383       .  A
C2564      C2565   1.397       .  A
C2564      O2570   1.312       .  A
C2565      C2566   1.396       .  A
C2565      H2574   1.083       .  S
C2566      C2569   1.356       .  A
O2567      C2568   1.329       .  A
C2568      C2569   1.386       .  A
C2569      H2575   1.083       .  S
O2570      C2571   1.326       .  A
C2571      C2572   1.388       .  A
C2572      H2576   1.083       .  S
C2577      C2582   1.381       .  A
C2577      C2578   1.403       .  A
C2577      O2583   1.330       .  A
C2578      C2579   1.408       .  A
C2578      H2589   1.082       .  S
C2579      C2588   1.353       .  A
C2579      C2580   1.381       .  A
C2580      C2581   1.405       .  A
C2580      O2586   1.332       .  A
C2581      C2582   1.410       .  A
C2581      H2590   1.082       .  S
C2582      C2585   1.354       .  A
O2583      C2584   1.331       .  A
C2584      C2585   1.396       .  A
C2585      H2591   1.083       .  S
O2586      C2587   1.333       .  A
C2587      C2588   1.395       .  A
C2588      H2592   1.083       .  S
C2593      C2598   1.382       .  A
C2593      C2594   1.401       .  A
C2593      O2599   1.317       .  A
C2594      C2595   1.401       .  A
C2594      H2605   1.082       .  S
C2595      C2604   1.360       .  A
C2595      C2596   1.382       .  A
C2596      C2597   1.397       .  A
C2596      O2602   1.314       .  A
C2597      C2598   1.397       .  A
C2597      H2606   1.083       .  S
C2598      C2601   1.355       .  A
O2599      C2600   1.329       .  A
C2600      C2601   1.386       .  A
C2601      H2607   1.083       .  S
O2602      C2603   1.326       .  A
C2603      C2604   1.389       .  A
C2604      H2608   1.083       .  S
C2609      C2614   1.378       .  A
C2609      C2610   1.411       .  A
C2609      O2615   1.317       .  A
C2610      C2611   1.406       .  A
C2610      H2621   1.082       .  S
C2611      C2620   1.377       .  A
C2611      C2612   1.378       .  A
C2612      C2613   1.411       .  A
C2612      O2618   1.316       .  A
C2613      C2614   1.405       .  A
C2613      H2622   1.082       .  S
C2614      C2617   1.378       .  A
O2615      C2616   1.335       .  A
C2616      C2617   1.394       .  A
C2617      H2623   1.082       .  S
O2618      C2619   1.335       .  A
C2619      C2620   1.393       .  A
C2620      H2624   1.082       .  S
C2625      C2630   1.382       .  A
C2625      C2626   1.395       .  A
C2625      O2631   1.313       .  A
C2626      C2627   1.395       .  A
C2626      H2637   1.083       .  S
C2627      C2636   1.352       .  A
C2627      C2628   1.382       .  A
C2628      C2629   1.404       .  A
C2628      O2634   1.320       .  A
C2629      C2630   1.404       .  A
C2629      H2638   1.082       .  S
C2630      C2633   1.363       .  A
O2631      C2632   1.325       .  A
C2632      C2633   1.391       .  A
C2633      H2639   1.083       .  S
O2634      C2635   1.330       .  A
C2635      C2636   1.385       .  A
C2636      H2640   1.083       .  S
C2641      C2646   1.382       .  A
C2641      C2642   1.397       .  A
C2641      O2647   1.313       .  A
C2642      C2643   1.396       .  A
C2642      H2653   1.083       .  S
C2643      C2652   1.355       .  A
C2643      C2644   1.382       .  A
C2644      C2645   1.404       .  A
C2644      O2650   1.319       .  A
C2645      C2646   1.403       .  A
C2645      H2654   1.082       .  S
C2646      C2649   1.364       .  A
O2647      C2648   1.326       .  A
C2648      C2649   1.391       .  A
C2649      H2655   1.083       .  S
O2650      C2651   1.330       .  A
C2651      C2652   1.386       .  A
C2652      H2656   1.083       .  S
C2657      C2662   1.378       .  A
C2657      C2658   1.411       .  A
C2657      O2663   1.316       .  A
C2658      C2659   1.405       .  A
C2658      H2669   1.082       .  S
C2659      C2668   1.377       .  A
C2659      C2660   1.378       .  A
C2660      C2661   1.408       .  A
C2660      O2666   1.314       .  A
C2661      C2662   1.403       .  A
C2661      H2670   1.082       .  S
C2662      C2665   1.374       .  A
O2663      C2664   1.334       .  A
C2664      C2665   1.391       .  A
C2665      H2671   1.082       .  S
O2666      C2667   1.334       .  A
C2667      C2668   1.393       .  A
C2668      H2672   1.082       .  S
C2673      C2678   1.382       .  A
C2673      C2674   1.404       .  A
C2673      O2679   1.318       .  A
C2674      C2675   1.402       .  A
C2674      H2685   1.082       .  S
C2675      C2684   1.364       .  A
C2675      C2676   1.382       .  A
C2676      C2677   1.399       .  A
C2676      O2682   1.314       .  A
C2677      C2678   1.397       .  A
C2677      H2686   1.083       .  S
C2678      C2681   1.357       .  A
O2679      C2680   1.329       .  A
C2680      C2681   1.387       .  A
C2681      H2687   1.083       .  S
O2682      C2683   1.328       .  A
C2683      C2684   1.390       .  A
C2684      H2688   1.082       .  S
C2689      C2694   1.381       .  A
C2689      C2690   1.404       .  A
C2689      O2695   1.329       .  A
C2690      C2691   1.409       .  A
C2690      H2701   1.082       .  S
C2691      C2700   1.356       .  A
C2691      C2692   1.381       .  A
C2692      C2693   1.403       .  A
C2692      O2698   1.329       .  A
C2693      C2694   1.407       .  A
C2693      H2702   1.082       .  S
C2694      C2697   1.354       .  A
O2695      C2696   1.332       .  A
C2696      C2697   1.394       .  A
C2697      H2703   1.083       .  S
O2698      C2699   1.331       .  A
C2699      C2700   1.396       .  A
C2700      H2704   1.083       .  S
C2705      C2710   1.378       .  A
C2705      C2706   1.411       .  A
C2705      O2711   1.316       .  A
C2706      C2707   1.406       .  A
C2706      H2717   1.082       .  S
C2707      C2716   1.377       .  A
C2707      C2708   1.378       .  A
C2708      C2709   1.409       .  A
C2708      O2714   1.315       .  A
C2709      C2710   1.404       .  A
C2709      H2718   1.082       .  S
C2710      C2713   1.376       .  A
O2711      C2712   1.335       .  A
C2712      C2713   1.392       .  A
C2713      H2719   1.082       .  S
O2714      C2715   1.334       .  A
C2715      C2716   1.394       .  A
C2716      H2720   1.082       .  S
C2721      C2726   1.382       .  A
C2721      C2722   1.402       .  A
C2721      O2727   1.317       .  A
C2722      C2723   1.401       .  A
C2722      H2733   1.082       .  S
C2723      C2732   1.360       .  A
C2723      C2724   1.382       .  A
C2724      C2725   1.397       .  A
C2724      O2730   1.314       .  A
C2725      C2726   1.397       .  A
C2725      H2734   1.083       .  S
C2726      C2729   1.355       .  A
O2727      C2728   1.328       .  A
C2728      C2729   1.386       .  A
C2729      H2735   1.083       .  S
O2730      C2731   1.326       .  A
C2731      C2732   1.390       .  A
C2732      H2736   1.083       .  S
C2737      C2742   1.382       .  A
C2737      C2738   1.402       .  A
C2737      O2743   1.315       .  A
C2738      C2739   1.400       .  A
C2738      H2749   1.082       .  S
C2739      C2748   1.362       .  A
C2739      C2740   1.382       .  A
C2740      C2741   1.398       .  A
C2740      O2746   1.312       .  A
C2741      C2742   1.396       .  A
C2741      H2750   1.083       .  S
C2742      C2745   1.357       .  A
O2743      C2744   1.328       .  A
C2744      C2745   1.387       .  A
C2745      H2751   1.083       .  S
O2746      C2747   1.326       .  A
C2747      C2748   1.389       .  A
C2748      H2752   1.083       .  S
C2753      C2758   1.382       .  A
C2753      C2754   1.396       .  A
C2753      O2759   1.313       .  A
C2754      C2755   1.396       .  A
C2754      H2765   1.083       .  S
C2755      C2764   1.353       .  A
C2755      C2756   1.382       .  A
C2756      C2757   1.404       .  A
C2756      O2762   1.321       .  A
C2757      C2758   1.404       .  A
C2757      H2766   1.082       .  S
C2758      C2761   1.363       .  A
O2759      C2760   1.326       .  A
C2760      C2761   1.390       .  A
C2761      H2767   1.083       .  S
O2762      C2763   1.331       .  A
C2763      C2764   1.387       .  A
C2764      H2768   1.083       .  S
C2769      C2774   1.382       .  A
C2769      C2770   1.395       .  A
C2769      O2775   1.309       .  A
C2770      C2771   1.393       .  A
C2770      H2781   1.083       .  S
C2771      C2780   1.354       .  A
C2771      C2772   1.381       .  A
C2772      C2773   1.405       .  A
C2772      O2778   1.319       .  A
C2773      C2774   1.404       .  A
C2773      H2782   1.082       .  S
C2774      C2777   1.366       .  A
O2775      C2776   1.325       .  A
C2776      C2777   1.391       .  A
C2777      H2783   1.083       .  S
O2778      C2779   1.331       .  A
C2779      C2780   1.385       .  A
C2780      H2784   1.083       .  S
C2785      C2790   1.382       .  A
C2785      C2786   1.406       .  A
C2785      O2791   1.322       .  A
C2786      C2787   1.405       .  A
C2786      H2797   1.082       .  S
C2787      C2796   1.365       .  A
C2787      C2788   1.382       .  A
C2788      C2789   1.396       .  A
C2788      O2794   1.314       .  A
C2789      C2790   1.396       .  A
C2789      H2798   1.083       .  S
C2790      C2793   1.353       .  A
O2791      C2792   1.331       .  A
C2792      C2793   1.387       .  A
C2793      H2799   1.083       .  S
O2794      C2795   1.326       .  A
C2795      C2796   1.392       .  A
C2796      H2800   1.082       .  S
C2801      C2806   1.378       .  A
C2801      C2802   1.410       .  A
C2801      O2807   1.317       .  A
C2802      C2803   1.404       .  A
C2802      H2813   1.082       .  S
C2803      C2812   1.374       .  A
C2803      C2804   1.379       .  A
C2804      C2805   1.410       .  A
C2804      O2810   1.317       .  A
C2805      C2806   1.405       .  A
C2805      H2814   1.082       .  S
C2806      C2809   1.375       .  A
O2807      C2808   1.335       .  A
C2808      C2809   1.393       .  A
C2809      H2815   1.082       .  S
O2810      C2811   1.334       .  A
C2811      C2812   1.392       .  A
C2812      H2816   1.082       .  S
C2817      C2822   1.380       .  A
C2817      C2818   1.406       .  A
C2817      O2823   1.332       .  A
C2818      C2819   1.411       .  A
C2818      H2829   1.082       .  S
C2819      C2828   1.357       .  A
C2819      C2820   1.380       .  A
C2820      C2821   1.406       .  A
C2820      O2826   1.332       .  A
C2821      C2822   1.411       .  A
C2821      H2830   1.082       .  S
C2822      C2825   1.358       .  A
O2823      C2824   1.334       .  A
C2824      C2825   1.397       .  A
C2825      H2831   1.083       .  S
O2826      C2827   1.334       .  A
C2827      C2828   1.397       .  A
C2828      H2832   1.083       .  S
C2833      C2838   1.382       .  A
C2833      C2834   1.404       .  A
C2833      O2839   1.316   1_554  A
C2834      C2835   1.402       .  A
C2834      H2845   1.082       .  S
C2835      C2844   1.365       .  A
C2835      C2836   1.382       .  A
C2836      C2837   1.398       .  A
C2836      O2842   1.311       .  A
C2837      C2838   1.396       .  A
C2837      H2846   1.083       .  S
C2838      C2841   1.357       .  A
O2839      C2840   1.329       .  A
C2840      C2841   1.386   1_556  A
C2841      H2847   1.083       .  S
O2842      C2843   1.326       .  A
C2843      C2844   1.390       .  A
C2844      H2848   1.083       .  S
C2849      C2854   1.382   1_455  A
C2849      C2850   1.397       .  A
C2849      O2855   1.312   1_455  A
C2850      C2851   1.395       .  A
C2850      H2861   1.083       .  S
C2851      C2860   1.355       .  A
C2851      C2852   1.381       .  A
C2852      C2853   1.405       .  A
C2852      O2858   1.319       .  A
C2853      C2854   1.404   1_455  A
C2853      H2862   1.082   1_455  S
C2854      C2857   1.365       .  A
O2855      C2856   1.326       .  A
C2856      C2857   1.391       .  A
C2857      H2863   1.083       .  S
O2858      C2859   1.331       .  A
C2859      C2860   1.386       .  A
C2860      H2864   1.083       .  S
C2865      C2870   1.378       .  A
C2865      C2866   1.411       .  A
C2865      O2871   1.315       .  A
C2866      C2867   1.405       .  A
C2866      H2877   1.082       .  S
C2867      C2876   1.378       .  A
C2867      C2868   1.378       .  A
C2868      C2869   1.411       .  A
C2868      O2874   1.316       .  A
C2869      C2870   1.405       .  A
C2869      H2878   1.082       .  S
C2870      C2873   1.378       .  A
O2871      C2872   1.335       .  A
C2872      C2873   1.393       .  A
C2873      H2879   1.082       .  S
O2874      C2875   1.335       .  A
C2875      C2876   1.394       .  A
C2876      H2880   1.082       .  S
C2881      C2886   1.383       .  A
C2881      C2882   1.395       .  A
C2881      O2887   1.312       .  A
C2882      C2883   1.394       .  A
C2882      H2893   1.083       .  S
C2883      C2892   1.352       .  A
C2883      C2884   1.382       .  A
C2884      C2885   1.403       .  A
C2884      O2890   1.319       .  A
C2885      C2886   1.403       .  A
C2885      H2894   1.082       .  S
C2886      C2889   1.362       .  A
O2887      C2888   1.325       .  A
C2888      C2889   1.390       .  A
C2889      H2895   1.083       .  S
O2890      C2891   1.330       .  A
C2891      C2892   1.384       .  A
C2892      H2896   1.083       .  S
C2897      C2902   1.379       .  A
C2897      C2898   1.411       .  A
C2897      O2903   1.316       .  A
C2898      C2899   1.405       .  A
C2898      H2909   1.082       .  S
C2899      C2908   1.378       .  A
C2899      C2900   1.378       .  A
C2900      C2901   1.407       .  A
C2900      O2906   1.313       .  A
C2901      C2902   1.402       .  A
C2901      H2910   1.082       .  S
C2902      C2905   1.374       .  A
O2903      C2904   1.335       .  A
C2904      C2905   1.391       .  A
C2905      H2911   1.082       .  S
O2906      C2907   1.333       .  A
C2907      C2908   1.393       .  A
C2908      H2912   1.082       .  S
C2913      C2918   1.382       .  A
C2913      C2914   1.400       .  A
C2913      O2919   1.314       .  A
C2914      C2915   1.399       .  A
C2914      H2925   1.083       .  S
C2915      C2924   1.358       .  A
C2915      C2916   1.381       .  A
C2916      C2917   1.404       .  A
C2916      O2922   1.319   1_455  A
C2917      C2918   1.403       .  A
C2917      H2926   1.082   1_455  S
C2918      C2921   1.365       .  A
O2919      C2920   1.328       .  A
C2920      C2921   1.391       .  A
C2921      H2927   1.082       .  S
O2922      C2923   1.330       .  A
C2923      C2924   1.389   1_655  A
C2924      H2928   1.083       .  S
C2929      C2934   1.381       .  A
C2929      C2930   1.404       .  A
C2929      O2935   1.331       .  A
C2930      C2931   1.409       .  A
C2930      H2941   1.082       .  S
C2931      C2940   1.354       .  A
C2931      C2932   1.381       .  A
C2932      C2933   1.404       .  A
C2932      O2938   1.330       .  A
C2933      C2934   1.409       .  A
C2933      H2942   1.082       .  S
C2934      C2937   1.354       .  A
O2935      C2936   1.333       .  A
C2936      C2937   1.395       .  A
C2937      H2943   1.083       .  S
O2938      C2939   1.332       .  A
C2939      C2940   1.396       .  A
C2940      H2944   1.083       .  S
C2945      C2950   1.381       .  A
C2945      C2946   1.399       .  A
C2945      O2951   1.315       .  A
C2946      C2947   1.398       .  A
C2946      H2957   1.083       .  S
C2947      C2956   1.355       .  A
C2947      C2948   1.381       .  A
C2948      C2949   1.405       .  A
C2948      O2954   1.320       .  A
C2949      C2950   1.404       .  A
C2949      H2958   1.082       .  S
C2950      C2953   1.364       .  A
O2951      C2952   1.328       .  A
C2952      C2953   1.391       .  A
C2953      H2959   1.082       .  S
O2954      C2955   1.331       .  A
C2955      C2956   1.388       .  A
C2956      H2960   1.083       .  S
C2961      C2966   1.380       .  A
C2961      C2962   1.406       .  A
C2961      O2967   1.332       .  A
C2962      C2963   1.410       .  A
C2962      H2973   1.082       .  S
C2963      C2972   1.356       .  A
C2963      C2964   1.381       .  A
C2964      C2965   1.404       .  A
C2964      O2970   1.330       .  A
C2965      C2966   1.409       .  A
C2965      H2974   1.082       .  S
C2966      C2969   1.355       .  A
O2967      C2968   1.334       .  A
C2968      C2969   1.396       .  A
C2969      H2975   1.083       .  S
O2970      C2971   1.332       .  A
C2971      C2972   1.396       .  A
C2972      H2976   1.083       .  S
C2977      C2982   1.381       .  A
C2977      C2978   1.406       .  A
C2977      O2983   1.319       .  A
C2978      C2979   1.404       .  A
C2978      H2989   1.082       .  S
C2979      C2988   1.366   1_554  A
C2979      C2980   1.381       .  A
C2980      C2981   1.398       .  A
C2980      O2986   1.313       .  A
C2981      C2982   1.397       .  A
C2981      H2990   1.083       .  S
C2982      C2985   1.357       .  A
O2983      C2984   1.331       .  A
C2984      C2985   1.387       .  A
C2985      H2991   1.083       .  S
O2986      C2987   1.327   1_554  A
C2987      C2988   1.391       .  A
C2988      H2992   1.082       .  S
C2993      C2998   1.382       .  A
C2993      C2994   1.402       .  A
C2993      O2999   1.317       .  A
C2994      C2995   1.401       .  A
C2994      H3005   1.082       .  S
C2995      C3004   1.361       .  A
C2995      C2996   1.383       .  A
C2996      C2997   1.395       .  A
C2996      O3002   1.311       .  A
C2997      C2998   1.394       .  A
C2997      H3006   1.083       .  S
C2998      C3001   1.353       .  A
O2999      C3000   1.329       .  A
C3000      C3001   1.385       .  A
C3001      H3007   1.083       .  S
O3002      C3003   1.325       .  A
C3003      C3004   1.389       .  A
C3004      H3008   1.083       .  S
C3009      C3014   1.381       .  A
C3009      C3010   1.403       .  A
C3009      O3015   1.318       .  A
C3010      C3011   1.402       .  A
C3010      H3021   1.082       .  S
C3011      C3020   1.363   1_545  A
C3011      C3012   1.382       .  A
C3012      C3013   1.397       .  A
C3012      O3018   1.311       .  A
C3013      C3014   1.395       .  A
C3013      H3022   1.083       .  S
C3014      C3017   1.354       .  A
O3015      C3016   1.329       .  A
C3016      C3017   1.387       .  A
C3017      H3023   1.083       .  S
O3018      C3019   1.326   1_545  A
C3019      C3020   1.389       .  A
C3020      H3024   1.082       .  S
C3025      C3030   1.382       .  A
C3025      C3026   1.401       .  A
C3025      O3031   1.316       .  A
C3026      C3027   1.400       .  A
C3026      H3037   1.082       .  S
C3027      C3036   1.361       .  A
C3027      C3028   1.382       .  A
C3028      C3029   1.398       .  A
C3028      O3034   1.312       .  A
C3029      C3030   1.396       .  A
C3029      H3038   1.083       .  S
C3030      C3033   1.356       .  A
O3031      C3032   1.328       .  A
C3032      C3033   1.387       .  A
C3033      H3039   1.083       .  S
O3034      C3035   1.327       .  A
C3035      C3036   1.388       .  A
C3036      H3040   1.083       .  S
C3041      C3046   1.383   1_455  A
C3041      C3042   1.396       .  A
C3041      O3047   1.312   1_455  A
C3042      C3043   1.396       .  A
C3042      H3053   1.083       .  S
C3043      C3052   1.354       .  A
C3043      C3044   1.382       .  A
C3044      C3045   1.403       .  A
C3044      O3050   1.319       .  A
C3045      C3046   1.402   1_455  A
C3045      H3054   1.082   1_455  S
C3046      C3049   1.361       .  A
O3047      C3048   1.325       .  A
C3048      C3049   1.389       .  A
C3049      H3055   1.083       .  S
O3050      C3051   1.330       .  A
C3051      C3052   1.386       .  A
C3052      H3056   1.083       .  S
C3057      C3062   1.382       .  A
C3057      C3058   1.404       .  A
C3057      O3063   1.321       .  A
C3058      C3059   1.404       .  A
C3058      H3069   1.082       .  S
C3059      C3068   1.363       .  A
C3059      C3060   1.382       .  A
C3060      C3061   1.396       .  A
C3060      O3066   1.314       .  A
C3061      C3062   1.396       .  A
C3061      H3070   1.083       .  S
C3062      C3065   1.352       .  A
O3063      C3064   1.330       .  A
C3064      C3065   1.386       .  A
C3065      H3071   1.083       .  S
O3066      C3067   1.326       .  A
C3067      C3068   1.390       .  A
C3068      H3072   1.082       .  S
C3073      C3078   1.382       .  A
C3073      C3074   1.395       .  A
C3073      O3079   1.311       .  A
C3074      C3075   1.394       .  A
C3074      H3085   1.083       .  S
C3075      C3084   1.353       .  A
C3075      C3076   1.382       .  A
C3076      C3077   1.403       .  A
C3076      O3082   1.317       .  A
C3077      C3078   1.402       .  A
C3077      H3086   1.082       .  S
C3078      C3081   1.363       .  A
O3079      C3080   1.325       .  A
C3080      C3081   1.390       .  A
C3081      H3087   1.083       .  S
O3082      C3083   1.329       .  A
C3083      C3084   1.386       .  A
C3084      H3088   1.083       .  S
C3089      C3094   1.383       .  A
C3089      C3090   1.401       .  A
C3089      O3095   1.316       .  A
C3090      C3091   1.400       .  A
C3090      H3101   1.082       .  S
C3091      C3100   1.359       .  A
C3091      C3092   1.383       .  A
C3092      C3093   1.395       .  A
C3092      O3098   1.311       .  A
C3093      C3094   1.395       .  A
C3093      H3102   1.083       .  S
C3094      C3097   1.353       .  A
O3095      C3096   1.328       .  A
C3096      C3097   1.386       .  A
C3097      H3103   1.083       .  S
O3098      C3099   1.325       .  A
C3099      C3100   1.388       .  A
C3100      H3104   1.083       .  S
C3105      C3110   1.382       .  A
C3105      C3106   1.403       .  A
C3105      O3111   1.319       .  A
C3106      C3107   1.403       .  A
C3106      H3117   1.082       .  S
C3107      C3116   1.362       .  A
C3107      C3108   1.382       .  A
C3108      C3109   1.395       .  A
C3108      O3114   1.312       .  A
C3109      C3110   1.394       .  A
C3109      H3118   1.083       .  S
C3110      C3113   1.352       .  A
O3111      C3112   1.330       .  A
C3112      C3113   1.385       .  A
C3113      H3119   1.083       .  S
O3114      C3115   1.325       .  A
C3115      C3116   1.390       .  A
C3116      H3120   1.083       .  S
C3121      C3126   1.382       .  A
C3121      C3122   1.407       .  A
C3121      O3127   1.323       .  A
C3122      C3123   1.406       .  A
C3122      H3133   1.082       .  S
C3123      C3132   1.366       .  A
C3123      C3124   1.382       .  A
C3124      C3125   1.395       .  A
C3124      O3130   1.313       .  A
C3125      C3126   1.395       .  A
C3125      H3134   1.083       .  S
C3126      C3129   1.353       .  A
O3127      C3128   1.332       .  A
C3128      C3129   1.385       .  A
C3129      H3135   1.083       .  S
O3130      C3131   1.326       .  A
C3131      C3132   1.392       .  A
C3132      H3136   1.082       .  S
C3137      C3142   1.381       .  A
C3137      C3138   1.405       .  A
C3137      O3143   1.321   1_554  A
C3138      C3139   1.405       .  A
C3138      H3149   1.082       .  S
C3139      C3148   1.364       .  A
C3139      C3140   1.381       .  A
C3140      C3141   1.398       .  A
C3140      O3146   1.315       .  A
C3141      C3142   1.398       .  A
C3141      H3150   1.083       .  S
C3142      C3145   1.356       .  A
O3143      C3144   1.331       .  A
C3144      C3145   1.388   1_556  A
C3145      H3151   1.083       .  S
O3146      C3147   1.327       .  A
C3147      C3148   1.391       .  A
C3148      H3152   1.082       .  S
C3153      C3158   1.382       .  A
C3153      C3154   1.398       .  A
C3153      O3159   1.314       .  A
C3154      C3155   1.397       .  A
C3154      H3165   1.083       .  S
C3155      C3164   1.355       .  A
C3155      C3156   1.382       .  A
C3156      C3157   1.404       .  A
C3156      O3162   1.320   1_545  A
C3157      C3158   1.403       .  A
C3157      H3166   1.082       .  S
C3158      C3161   1.363       .  A
O3159      C3160   1.327       .  A
C3160      C3161   1.390       .  A
C3161      H3167   1.082       .  S
O3162      C3163   1.330       .  A
C3163      C3164   1.387   1_565  A
C3164      H3168   1.083       .  S
C3169      C3174   1.379       .  A
C3169      C3170   1.408       .  A
C3169      O3175   1.315       .  A
C3170      C3171   1.403       .  A
C3170      H3181   1.082       .  S
C3171      C3180   1.374       .  A
C3171      C3172   1.379       .  A
C3172      C3173   1.409       .  A
C3172      O3178   1.314       .  A
C3173      C3174   1.403       .  A
C3173      H3182   1.082       .  S
C3174      C3177   1.375       .  A
O3175      C3176   1.333       .  A
C3176      C3177   1.392       .  A
C3177      H3183   1.082       .  S
O3178      C3179   1.334       .  A
C3179      C3180   1.391       .  A
C3180      H3184   1.082       .  S
C3185      C3190   1.378       .  A
C3185      C3186   1.411       .  A
C3185      O3191   1.315       .  A
C3186      C3187   1.405       .  A
C3186      H3197   1.082       .  S
C3187      C3196   1.378       .  A
C3187      C3188   1.378       .  A
C3188      C3189   1.407       .  A
C3188      O3194   1.312       .  A
C3189      C3190   1.401       .  A
C3189      H3198   1.082       .  S
C3190      C3193   1.375       .  A
O3191      C3192   1.335       .  A
C3192      C3193   1.391       .  A
C3193      H3199   1.082       .  S
O3194      C3195   1.333       .  A
C3195      C3196   1.393       .  A
C3196      H3200   1.082       .  S
C3201      C3206   1.382       .  A
C3201      C3202   1.394       .  A
C3201      O3207   1.311       .  A
C3202      C3203   1.394       .  A
C3202      H3213   1.083       .  S
C3203      C3212   1.350       .  A
C3203      C3204   1.382       .  A
C3204      C3205   1.403       .  A
C3204      O3210   1.319       .  A
C3205      C3206   1.402       .  A
C3205      H3214   1.082       .  S
C3206      C3209   1.362       .  A
O3207      C3208   1.325       .  A
C3208      C3209   1.390       .  A
C3209      H3215   1.082       .  S
O3210      C3211   1.329       .  A
C3211      C3212   1.385       .  A
C3212      H3216   1.083       .  S
C3217      C3222   1.382       .  A
C3217      C3218   1.397       .  A
C3217      O3223   1.313       .  A
C3218      C3219   1.396       .  A
C3218      H3229   1.083       .  S
C3219      C3228   1.356       .  A
C3219      C3220   1.382       .  A
C3220      C3221   1.406       .  A
C3220      O3226   1.320       .  A
C3221      C3222   1.405       .  A
C3221      H3230   1.082       .  S
C3222      C3225   1.366       .  A
O3223      C3224   1.326       .  A
C3224      C3225   1.392       .  A
C3225      H3231   1.082       .  S
O3226      C3227   1.331       .  A
C3227      C3228   1.387       .  A
C3228      H3232   1.083       .  S
C3233      C3238   1.382   1_655  A
C3233      C3234   1.405   1_655  A
C3233      O3239   1.319       .  A
C3234      C3235   1.404       .  A
C3234      H3245   1.082   1_455  S
C3235      C3244   1.365       .  A
C3235      C3236   1.382       .  A
C3236      C3237   1.395       .  A
C3236      O3242   1.311       .  A
C3237      C3238   1.394       .  A
C3237      H3246   1.083       .  S
C3238      C3241   1.353       .  A
O3239      C3240   1.331       .  A
C3240      C3241   1.385   1_655  A
C3241      H3247   1.083       .  S
O3242      C3243   1.325       .  A
C3243      C3244   1.391       .  A
C3244      H3248   1.082       .  S
C3249      C3254   1.382       .  A
C3249      C3250   1.394       .  A
C3249      O3255   1.310       .  A
C3250      C3251   1.393       .  A
C3250      H3261   1.083       .  S
C3251      C3260   1.351       .  A
C3251      C3252   1.382       .  A
C3252      C3253   1.403       .  A
C3252      O3258   1.317       .  A
C3253      C3254   1.402       .  A
C3253      H3262   1.082       .  S
C3254      C3257   1.362       .  A
O3255      C3256   1.325       .  A
C3256      C3257   1.390       .  A
C3257      H3263   1.082       .  S
O3258      C3259   1.329       .  A
C3259      C3260   1.384       .  A
C3260      H3264   1.083       .  S
C3265      C3270   1.382       .  A
C3265      C3266   1.404       .  A
C3265      O3271   1.318   1_554  A
C3266      C3267   1.403       .  A
C3266      H3277   1.082       .  S
C3267      C3276   1.365       .  A
C3267      C3268   1.382       .  A
C3268      C3269   1.395       .  A
C3268      O3274   1.310       .  A
C3269      C3270   1.394       .  A
C3269      H3278   1.083       .  S
C3270      C3273   1.353       .  A
O3271      C3272   1.330       .  A
C3272      C3273   1.385   1_556  A
C3273      H3279   1.083       .  S
O3274      C3275   1.325       .  A
C3275      C3276   1.390       .  A
C3276      H3280   1.082       .  S
C3281      C3286   1.382       .  A
C3281      C3282   1.396       .  A
C3281      O3287   1.314       .  A
C3282      C3283   1.396       .  A
C3282      H3293   1.083       .  S
C3283      C3292   1.352       .  A
C3283      C3284   1.382       .  A
C3284      C3285   1.403       .  A
C3284      O3290   1.320       .  A
C3285      C3286   1.403       .  A
C3285      H3294   1.082       .  S
C3286      C3289   1.360       .  A
O3287      C3288   1.326       .  A
C3288      C3289   1.390       .  A
C3289      H3295   1.083       .  S
O3290      C3291   1.330       .  A
C3291      C3292   1.386       .  A
C3292      H3296   1.083       .  S
C3297      C3302   1.382       .  A
C3297      C3298   1.398       .  A
C3297      O3303   1.314       .  A
C3298      C3299   1.397       .  A
C3298      H3309   1.083       .  S
C3299      C3308   1.355       .  A
C3299      C3300   1.382   1_455  A
C3300      C3301   1.402   1_655  A
C3300      O3306   1.318       .  A
C3301      C3302   1.402       .  A
C3301      H3310   1.082   1_455  S
C3302      C3305   1.361       .  A
O3303      C3304   1.327       .  A
C3304      C3305   1.389       .  A
C3305      H3311   1.083       .  S
O3306      C3307   1.329       .  A
C3307      C3308   1.387   1_655  A
C3308      H3312   1.083       .  S
C3313      C3318   1.379       .  A
C3313      C3314   1.407       .  A
C3313      O3319   1.312       .  A
C3314      C3315   1.401       .  A
C3314      H3325   1.082       .  S
C3315      C3324   1.374       .  A
C3315      C3316   1.378       .  A
C3316      C3317   1.411       .  A
C3316      O3322   1.315       .  A
C3317      C3318   1.405       .  A
C3317      H3326   1.082       .  S
C3318      C3321   1.377       .  A
O3319      C3320   1.332       .  A
C3320      C3321   1.393       .  A
C3321      H3327   1.082       .  S
O3322      C3323   1.335       .  A
C3323      C3324   1.390       .  A
C3324      H3328   1.082       .  S
C3329      C3334   1.381       .  A
C3329      C3330   1.404       .  A
C3329      O3335   1.330       .  A
C3330      C3331   1.409       .  A
C3330      H3341   1.082       .  S
C3331      C3340   1.354       .  A
C3331      C3332   1.381       .  A
C3332      C3333   1.403       .  A
C3332      O3338   1.330       .  A
C3333      C3334   1.408       .  A
C3333      H3342   1.082       .  S
C3334      C3337   1.353       .  A
O3335      C3336   1.332       .  A
C3336      C3337   1.395       .  A
C3337      H3343   1.083       .  S
O3338      C3339   1.331       .  A
C3339      C3340   1.396       .  A
C3340      H3344   1.083       .  S
C3345      C3350   1.382       .  A
C3345      C3346   1.404       .  A
C3345      O3351   1.319       .  A
C3346      C3347   1.403       .  A
C3346      H3357   1.082       .  S
C3347      C3356   1.364       .  A
C3347      C3348   1.382       .  A
C3348      C3349   1.398       .  A
C3348      O3354   1.313       .  A
C3349      C3350   1.397       .  A
C3349      H3358   1.083       .  S
C3350      C3353   1.356       .  A
O3351      C3352   1.330       .  A
C3352      C3353   1.388       .  A
C3353      H3359   1.083       .  S
O3354      C3355   1.327       .  A
C3355      C3356   1.390       .  A
C3356      H3360   1.083       .  S
C3361      C3366   1.382       .  A
C3361      C3362   1.404       .  A
C3361      O3367   1.319       .  A
C3362      C3363   1.403       .  A
C3362      H3373   1.082       .  S
C3363      C3372   1.363       .  A
C3363      C3364   1.382       .  A
C3364      C3365   1.398       .  A
C3364      O3370   1.314       .  A
C3365      C3366   1.397       .  A
C3365      H3374   1.083       .  S
C3366      C3369   1.355       .  A
O3367      C3368   1.330       .  A
C3368      C3369   1.388       .  A
C3369      H3375   1.083       .  S
O3370      C3371   1.327       .  A
C3371      C3372   1.390       .  A
C3372      H3376   1.082       .  S
C3377      C3382   1.382       .  A
C3377      C3378   1.403       .  A
C3377      O3383   1.318       .  A
C3378      C3379   1.402       .  A
C3378      H3389   1.082       .  S
C3379      C3388   1.362       .  A
C3379      C3380   1.382       .  A
C3380      C3381   1.395       .  A
C3380      O3386   1.310       .  A
C3381      C3382   1.394       .  A
C3381      H3390   1.083       .  S
C3382      C3385   1.352       .  A
O3383      C3384   1.329       .  A
C3384      C3385   1.385       .  A
C3385      H3391   1.083       .  S
O3386      C3387   1.325       .  A
C3387      C3388   1.389       .  A
C3388      H3392   1.083       .  S
C3393      C3398   1.383       .  A
C3393      C3394   1.394       .  A
C3393      O3399   1.310       .  A
C3394      C3395   1.393       .  A
C3394      H3405   1.083       .  S
C3395      C3404   1.352       .  A
C3395      C3396   1.383       .  A
C3396      C3397   1.401       .  A
C3396      O3402   1.316   1_545  A
C3397      C3398   1.400       .  A
C3397      H3406   1.083       .  S
C3398      C3401   1.360       .  A
O3399      C3400   1.324       .  A
C3400      C3401   1.389       .  A
C3401      H3407   1.083       .  S
O3402      C3403   1.328       .  A
C3403      C3404   1.384   1_565  A
C3404      H3408   1.083       .  S
C3409      C3414   1.378       .  A
C3409      C3410   1.408       .  A
C3409      O3415   1.313       .  A
C3410      C3411   1.402       .  A
C3410      H3421   1.082       .  S
C3411      C3420   1.376       .  A
C3411      C3412   1.378       .  A
C3412      C3413   1.411       .  A
C3412      O3418   1.315       .  A
C3413      C3414   1.405       .  A
C3413      H3422   1.082       .  S
C3414      C3417   1.378       .  A
O3415      C3416   1.333       .  A
C3416      C3417   1.394       .  A
C3417      H3423   1.082       .  S
O3418      C3419   1.335       .  A
C3419      C3420   1.392       .  A
C3420      H3424   1.082       .  S
C3425      C3430   1.379       .  A
C3425      C3426   1.409       .  A
C3425      O3431   1.315       .  A
C3426      C3427   1.404       .  A
C3426      H3437   1.082       .  S
C3427      C3436   1.375       .  A
C3427      C3428   1.379       .  A
C3428      C3429   1.409       .  A
C3428      O3434   1.315       .  A
C3429      C3430   1.404       .  A
C3429      H3438   1.082       .  S
C3430      C3433   1.375       .  A
O3431      C3432   1.334       .  A
C3432      C3433   1.392       .  A
C3433      H3439   1.082       .  S
O3434      C3435   1.334       .  A
C3435      C3436   1.391       .  A
C3436      H3440   1.082       .  S
C3441      C3446   1.382       .  A
C3441      C3442   1.398       .  A
C3441      O3447   1.314       .  A
C3442      C3443   1.398       .  A
C3442      H3453   1.083       .  S
C3443      C3452   1.355       .  A
C3443      C3444   1.382       .  A
C3444      C3445   1.403       .  A
C3444      O3450   1.319       .  A
C3445      C3446   1.402       .  A
C3445      H3454   1.082       .  S
C3446      C3449   1.362       .  A
O3447      C3448   1.328       .  A
C3448      C3449   1.389       .  A
C3449      H3455   1.082       .  S
O3450      C3451   1.329       .  A
C3451      C3452   1.388       .  A
C3452      H3456   1.083       .  S
C3457      C3462   1.381       .  A
C3457      C3458   1.405       .  A
C3457      O3463   1.321       .  A
C3458      C3459   1.405       .  A
C3458      H3469   1.082       .  S
C3459      C3468   1.364       .  A
C3459      C3460   1.382       .  A
C3460      C3461   1.399       .  A
C3460      O3466   1.315       .  A
C3461      C3462   1.398       .  A
C3461      H3470   1.083       .  S
C3462      C3465   1.356       .  A
O3463      C3464   1.331       .  A
C3464      C3465   1.388       .  A
C3465      H3471   1.083       .  S
O3466      C3467   1.328       .  A
C3467      C3468   1.391       .  A
C3468      H3472   1.082       .  S
C3473      C3478   1.382       .  A
C3473      C3474   1.402       .  A
C3473      O3479   1.318       .  A
C3474      C3475   1.402   1_455  A
C3474      H3485   1.083   1_455  S
C3475      C3484   1.361       .  A
C3475      C3476   1.383   1_655  A
C3476      C3477   1.397       .  A
C3476      O3482   1.314   1_455  A
C3477      C3478   1.396       .  A
C3477      H3486   1.083       .  S
C3478      C3481   1.355       .  A
O3479      C3480   1.329       .  A
C3480      C3481   1.385       .  A
C3481      H3487   1.083       .  S
O3482      C3483   1.326       .  A
C3483      C3484   1.390       .  A
C3484      H3488   1.083       .  S
C3489      C3494   1.382       .  A
C3489      C3490   1.398       .  A
C3489      O3495   1.314       .  A
C3490      C3491   1.397       .  A
C3490      H3501   1.083       .  S
C3491      C3500   1.356       .  A
C3491      C3492   1.382       .  A
C3492      C3493   1.403       .  A
C3492      O3498   1.319   1_545  A
C3493      C3494   1.402       .  A
C3493      H3502   1.082       .  S
C3494      C3497   1.361       .  A
O3495      C3496   1.326       .  A
C3496      C3497   1.389       .  A
C3497      H3503   1.083       .  S
O3498      C3499   1.330       .  A
C3499      C3500   1.388   1_565  A
C3500      H3504   1.083       .  S
C3505      C3510   1.381       .  A
C3505      C3506   1.404       .  A
C3505      O3511   1.331       .  A
C3506      C3507   1.409       .  A
C3506      H3517   1.082       .  S
C3507      C3516   1.354       .  A
C3507      C3508   1.381       .  A
C3508      C3509   1.404       .  A
C3508      O3514   1.331       .  A
C3509      C3510   1.410       .  A
C3509      H3518   1.082       .  S
C3510      C3513   1.354       .  A
O3511      C3512   1.332       .  A
C3512      C3513   1.396       .  A
C3513      H3519   1.083       .  S
O3514      C3515   1.333       .  A
C3515      C3516   1.396       .  A
C3516      H3520   1.083       .  S
C3521      C3526   1.378       .  A
C3521      C3522   1.410       .  A
C3521      O3527   1.314       .  A
C3522      C3523   1.404       .  A
C3522      H3533   1.082       .  S
C3523      C3532   1.377       .  A
C3523      C3524   1.378       .  A
C3524      C3525   1.410       .  A
C3524      O3530   1.314       .  A
C3525      C3526   1.404       .  A
C3525      H3534   1.082       .  S
C3526      C3529   1.377       .  A
O3527      C3528   1.334       .  A
C3528      C3529   1.393       .  A
C3529      H3535   1.082       .  S
O3530      C3531   1.334       .  A
C3531      C3532   1.393       .  A
C3532      H3536   1.082       .  S
C3537      C3542   1.378       .  A
C3537      C3538   1.410   1_455  A
C3537      O3543   1.316       .  A
C3538      C3539   1.405       .  A
C3538      H3549   1.082       .  S
C3539      C3548   1.375       .  A
C3539      C3540   1.378       .  A
C3540      C3541   1.411   1_655  A
C3540      O3546   1.318       .  A
C3541      C3542   1.407       .  A
C3541      H3550   1.082       .  S
C3542      C3545   1.378       .  A
O3543      C3544   1.335       .  A
C3544      C3545   1.394       .  A
C3545      H3551   1.082       .  S
O3546      C3547   1.335       .  A
C3547      C3548   1.393       .  A
C3548      H3552   1.082       .  S
C3553      C3558   1.380       .  A
C3553      C3554   1.408       .  A
C3553      O3559   1.332       .  A
C3554      C3555   1.411   1_565  A
C3554      H3565   1.082       .  S
C3555      C3564   1.361       .  A
C3555      C3556   1.380       .  A
C3556      C3557   1.406       .  A
C3556      O3562   1.329       .  A
C3557      C3558   1.409   1_545  A
C3557      H3566   1.082       .  S
C3558      C3561   1.359       .  A
O3559      C3560   1.334       .  A
C3560      C3561   1.397       .  A
C3561      H3567   1.083       .  S
O3562      C3563   1.333       .  A
C3563      C3564   1.396       .  A
C3564      H3568   1.083       .  S
C3569      C3574   1.378       .  A
C3569      C3570   1.409       .  A
C3569      O3575   1.314       .  A
C3570      C3571   1.403       .  A
C3570      H3581   1.082       .  S
C3571      C3580   1.377       .  A
C3571      C3572   1.378       .  A
C3572      C3573   1.410       .  A
C3572      O3578   1.314       .  A
C3573      C3574   1.404       .  A
C3573      H3582   1.082       .  S
C3574      C3577   1.376       .  A
O3575      C3576   1.333       .  A
C3576      C3577   1.393       .  A
C3577      H3583   1.082       .  S
O3578      C3579   1.334       .  A
C3579      C3580   1.392       .  A
C3580      H3584   1.082       .  S
C3585      C3590   1.380       .  A
C3585      C3586   1.406       .  A
C3585      O3591   1.332       .  A
C3586      C3587   1.411       .  A
C3586      H3597   1.082       .  S
C3587      C3596   1.357       .  A
C3587      C3588   1.381       .  A
C3588      C3589   1.401       .  A
C3588      O3594   1.328       .  A
C3589      C3590   1.406       .  A
C3589      H3598   1.082       .  S
C3590      C3593   1.351       .  A
O3591      C3592   1.334       .  A
C3592      C3593   1.394       .  A
C3593      H3599   1.083       .  S
O3594      C3595   1.330       .  A
C3595      C3596   1.397       .  A
C3596      H3600   1.083       .  S
C3601      C3606   1.378       .  A
C3601      C3602   1.413   1_655  A
C3601      O3607   1.317       .  A
C3602      C3603   1.407       .  A
C3602      H3613   1.082       .  S
C3603      C3612   1.379       .  A
C3603      C3604   1.378       .  A
C3604      C3605   1.409   1_455  A
C3604      O3610   1.315       .  A
C3605      C3606   1.403       .  A
C3605      H3614   1.082       .  S
C3606      C3609   1.376       .  A
O3607      C3608   1.336       .  A
C3608      C3609   1.392       .  A
C3609      H3615   1.082       .  S
O3610      C3611   1.334       .  A
C3611      C3612   1.395       .  A
C3612      H3616   1.082       .  S
C3617      C3622   1.381       .  A
C3617      C3618   1.404       .  A
C3617      O3623   1.331       .  A
C3618      C3619   1.410       .  A
C3618      H3629   1.082       .  S
C3619      C3628   1.355       .  A
C3619      C3620   1.381       .  A
C3620      C3621   1.404       .  A
C3620      O3626   1.331       .  A
C3621      C3622   1.409       .  A
C3621      H3630   1.082       .  S
C3622      C3625   1.354       .  A
O3623      C3624   1.332       .  A
C3624      C3625   1.396       .  A
C3625      H3631   1.083       .  S
O3626      C3627   1.333       .  A
C3627      C3628   1.396       .  A
C3628      H3632   1.083       .  S
C3633      C3638   1.382   1_545  A
C3633      C3634   1.402       .  A
C3633      O3639   1.318       .  A
C3634      C3635   1.402   1_545  A
C3634      H3645   1.082       .  S
C3635      C3644   1.361       .  A
C3635      C3636   1.383       .  A
C3636      C3637   1.394       .  A
C3636      O3642   1.311       .  A
C3637      C3638   1.394       .  A
C3637      H3646   1.083       .  S
C3638      C3641   1.352   1_565  A
O3639      C3640   1.329       .  A
C3640      C3641   1.385       .  A
C3641      H3647   1.083   1_545  S
O3642      C3643   1.324       .  A
C3643      C3644   1.389       .  A
C3644      H3648   1.083       .  S
C3649      C3654   1.378       .  A
C3649      C3650   1.412       .  A
C3649      O3655   1.319       .  A
C3650      C3651   1.408       .  A
C3650      H3661   1.082       .  S
C3651      C3660   1.378       .  A
C3651      C3652   1.378       .  A
C3652      C3653   1.409       .  A
C3652      O3658   1.316       .  A
C3653      C3654   1.404       .  A
C3653      H3662   1.082       .  S
C3654      C3657   1.374       .  A
O3655      C3656   1.336       .  A
C3656      C3657   1.392       .  A
C3657      H3663   1.082       .  S
O3658      C3659   1.334       .  A
C3659      C3660   1.395       .  A
C3660      H3664   1.082       .  S
C3665      C3670   1.378       .  A
C3665      C3666   1.412       .  A
C3665      O3671   1.319       .  A
C3666      C3667   1.408       .  A
C3666      H3677   1.082       .  S
C3667      C3676   1.378       .  A
C3667      C3668   1.378       .  A
C3668      C3669   1.410       .  A
C3668      O3674   1.317       .  A
C3669      C3670   1.405       .  A
C3669      H3678   1.082       .  S
C3670      C3673   1.375       .  A
O3671      C3672   1.336       .  A
C3672      C3673   1.392       .  A
C3673      H3679   1.082       .  S
O3674      C3675   1.335       .  A
C3675      C3676   1.394       .  A
C3676      H3680   1.082       .  S
C3681      C3686   1.378       .  A
C3681      C3682   1.408   1_565  A
C3681      O3687   1.315       .  A
C3682      C3683   1.402       .  A
C3682      H3693   1.082       .  S
C3683      C3692   1.373       .  A
C3683      C3684   1.378       .  A
C3684      C3685   1.413   1_545  A
C3684      O3690   1.319       .  A
C3685      C3686   1.409       .  A
C3685      H3694   1.082       .  S
C3686      C3689   1.379       .  A
O3687      C3688   1.333       .  A
C3688      C3689   1.396       .  A
C3689      H3695   1.082       .  S
O3690      C3691   1.337       .  A
C3691      C3692   1.391       .  A
C3692      H3696   1.082       .  S
C3697      C3702   1.382   1_545  A
C3697      C3698   1.405       .  A
C3697      O3703   1.320       .  A
C3698      C3699   1.404   1_645  A
C3698      H3709   1.082   1_655  S
C3699      C3708   1.365       .  A
C3699      C3700   1.382   1_455  A
C3700      C3701   1.396       .  A
C3700      O3706   1.312       .  A
C3701      C3702   1.395       .  A
C3701      H3710   1.083       .  S
C3702      C3705   1.353   1_565  A
O3703      C3704   1.330       .  A
C3704      C3705   1.385       .  A
C3705      H3711   1.083       .  S
O3706      C3707   1.326   1_655  A
C3707      C3708   1.390       .  A
C3708      H3712   1.082       .  S
C3713      C3718   1.379       .  A
C3713      C3714   1.408       .  A
C3713      O3719   1.315       .  A
C3714      C3715   1.403       .  A
C3714      H3725   1.082       .  S
C3715      C3724   1.374       .  A
C3715      C3716   1.378       .  A
C3716      C3717   1.412       .  A
C3716      O3722   1.317       .  A
C3717      C3718   1.407       .  A
C3717      H3726   1.082       .  S
C3718      C3721   1.377       .  A
O3719      C3720   1.333       .  A
C3720      C3721   1.394       .  A
C3721      H3727   1.082       .  S
O3722      C3723   1.336       .  A
C3723      C3724   1.391       .  A
C3724      H3728   1.082       .  S
C3729      C3734   1.382       .  A
C3729      C3730   1.397       .  A
C3729      O3735   1.313       .  A
C3730      C3731   1.396       .  A
C3730      H3741   1.083       .  S
C3731      C3740   1.355       .  A
C3731      C3732   1.381       .  A
C3732      C3733   1.404       .  A
C3732      O3738   1.320   1_655  A
C3733      C3734   1.404       .  A
C3733      H3742   1.082   1_655  S
C3734      C3737   1.363       .  A
O3735      C3736   1.326       .  A
C3736      C3737   1.390       .  A
C3737      H3743   1.083       .  S
O3738      C3739   1.331       .  A
C3739      C3740   1.387   1_455  A
C3740      H3744   1.083       .  S
C3745      C3750   1.382       .  A
C3745      C3746   1.404       .  A
C3745      O3751   1.320       .  A
C3746      C3747   1.403       .  A
C3746      H3757   1.082       .  S
C3747      C3756   1.363       .  A
C3747      C3748   1.382       .  A
C3748      C3749   1.398       .  A
C3748      O3754   1.314       .  A
C3749      C3750   1.397       .  A
C3749      H3758   1.083       .  S
C3750      C3753   1.354       .  A
O3751      C3752   1.330       .  A
C3752      C3753   1.387       .  A
C3753      H3759   1.083       .  S
O3754      C3755   1.328       .  A
C3755      C3756   1.390       .  A
C3756      H3760   1.082       .  S
C3761      C3766   1.379       .  A
C3761      C3762   1.409       .  A
C3761      O3767   1.314       .  A
C3762      C3763   1.404       .  A
C3762      H3773   1.082       .  S
C3763      C3772   1.375       .  A
C3763      C3764   1.379       .  A
C3764      C3765   1.407       .  A
C3764      O3770   1.313       .  A
C3765      C3766   1.402       .  A
C3765      H3774   1.082       .  S
C3766      C3769   1.373       .  A
O3767      C3768   1.333       .  A
C3768      C3769   1.391       .  A
C3769      H3775   1.082       .  S
O3770      C3771   1.333       .  A
C3771      C3772   1.392       .  A
C3772      H3776   1.082       .  S
C3777      C3782   1.378       .  A
C3777      C3778   1.409       .  A
C3777      O3783   1.316       .  A
C3778      C3779   1.403       .  A
C3778      H3789   1.082       .  S
C3779      C3788   1.374       .  A
C3779      C3780   1.378       .  A
C3780      C3781   1.412       .  A
C3780      O3786   1.318       .  A
C3781      C3782   1.407       .  A
C3781      H3790   1.082       .  S
C3782      C3785   1.378       .  A
O3783      C3784   1.334       .  A
C3784      C3785   1.394       .  A
C3785      H3791   1.082       .  S
O3786      C3787   1.336       .  A
C3787      C3788   1.391       .  A
C3788      H3792   1.082       .  S
C3793      C3798   1.381       .  A
C3793      C3794   1.402       .  A
C3793      O3799   1.330       .  A
C3794      C3795   1.407   1_565  A
C3794      H3805   1.082       .  S
C3795      C3804   1.352       .  A
C3795      C3796   1.380       .  A
C3796      C3797   1.408       .  A
C3796      O3802   1.334       .  A
C3797      C3798   1.412   1_545  A
C3797      H3806   1.082       .  S
C3798      C3801   1.358       .  A
O3799      C3800   1.331       .  A
C3800      C3801   1.397       .  A
C3801      H3807   1.083       .  S
O3802      C3803   1.335       .  A
C3803      C3804   1.395       .  A
C3804      H3808   1.083       .  S
C3809      C3814   1.381       .  A
C3809      C3810   1.405       .  A
C3809      O3815   1.319       .  A
C3810      C3811   1.404   1_565  A
C3810      H3821   1.082   1_565  S
C3811      C3820   1.365       .  A
C3811      C3812   1.382   1_545  A
C3812      C3813   1.394       .  A
C3812      O3818   1.309   1_565  A
C3813      C3814   1.393       .  A
C3813      H3822   1.083       .  S
C3814      C3817   1.352       .  A
O3815      C3816   1.330       .  A
C3816      C3817   1.385       .  A
C3817      H3823   1.083       .  S
O3818      C3819   1.325       .  A
C3819      C3820   1.391       .  A
C3820      H3824   1.082       .  S
C3825      C3830   1.381       .  A
C3825      C3826   1.403       .  A
C3825      O3831   1.329       .  A
C3826      C3827   1.408       .  A
C3826      H3837   1.082       .  S
C3827      C3836   1.354       .  A
C3827      C3828   1.381       .  A
C3828      C3829   1.403       .  A
C3828      O3834   1.329       .  A
C3829      C3830   1.407       .  A
C3829      H3838   1.082       .  S
C3830      C3833   1.353       .  A
O3831      C3832   1.331       .  A
C3832      C3833   1.394       .  A
C3833      H3839   1.083       .  S
O3834      C3835   1.331       .  A
C3835      C3836   1.396       .  A
C3836      H3840   1.083       .  S
C3841      C3846   1.380       .  A
C3841      C3842   1.405       .  A
C3841      O3847   1.331       .  A
C3842      C3843   1.410       .  A
C3842      H3853   1.082       .  S
C3843      C3852   1.356       .  A
C3843      C3844   1.380       .  A
C3844      C3845   1.405       .  A
C3844      O3850   1.331       .  A
C3845      C3846   1.410       .  A
C3845      H3854   1.082       .  S
C3846      C3849   1.356       .  A
O3847      C3848   1.333       .  A
C3848      C3849   1.395       .  A
C3849      H3855   1.083       .  S
O3850      C3851   1.333       .  A
C3851      C3852   1.397       .  A
C3852      H3856   1.083       .  S
C3857      C3862   1.383       .  A
C3857      C3858   1.399       .  A
C3857      O3863   1.315       .  A
C3858      C3859   1.399       .  A
C3858      H3869   1.082       .  S
C3859      C3868   1.358       .  A
C3859      C3860   1.383       .  A
C3860      C3861   1.396       .  A
C3860      O3866   1.311       .  A
C3861      C3862   1.395       .  A
C3861      H3870   1.083       .  S
C3862      C3865   1.353       .  A
O3863      C3864   1.327       .  A
C3864      C3865   1.386       .  A
C3865      H3871   1.083       .  S
O3866      C3867   1.326       .  A
C3867      C3868   1.387       .  A
C3868      H3872   1.083       .  S
C3873      C3878   1.382       .  A
C3873      C3874   1.396       .  A
C3873      O3879   1.311       .  A
C3874      C3875   1.395       .  A
C3874      H3885   1.083       .  S
C3875      C3884   1.352       .  A
C3875      C3876   1.382       .  A
C3876      C3877   1.404       .  A
C3876      O3882   1.320       .  A
C3877      C3878   1.403       .  A
C3877      H3886   1.082       .  S
C3878      C3881   1.364       .  A
O3879      C3880   1.326       .  A
C3880      C3881   1.390       .  A
C3881      H3887   1.082       .  S
O3882      C3883   1.330       .  A
C3883      C3884   1.387       .  A
C3884      H3888   1.083       .  S
C3889      C3894   1.381       .  A
C3889      C3890   1.404       .  A
C3889      O3895   1.330       .  A
C3890      C3891   1.408       .  A
C3890      H3901   1.082       .  S
C3891      C3900   1.355       .  A
C3891      C3892   1.381       .  A
C3892      C3893   1.404       .  A
C3892      O3898   1.330       .  A
C3893      C3894   1.409       .  A
C3893      H3902   1.082       .  S
C3894      C3897   1.356       .  A
O3895      C3896   1.332       .  A
C3896      C3897   1.396       .  A
C3897      H3903   1.083       .  S
O3898      C3899   1.332       .  A
C3899      C3900   1.395       .  A
C3900      H3904   1.083       .  S
C3905      C3910   1.381       .  A
C3905      C3906   1.403       .  A
C3905      O3911   1.329       .  A
C3906      C3907   1.408   1_655  A
C3906      H3917   1.082       .  S
C3907      C3916   1.352       .  A
C3907      C3908   1.381       .  A
C3908      C3909   1.401       .  A
C3908      O3914   1.328       .  A
C3909      C3910   1.406   1_455  A
C3909      H3918   1.082       .  S
C3910      C3913   1.351       .  A
O3911      C3912   1.331       .  A
C3912      C3913   1.394       .  A
C3913      H3919   1.083       .  S
O3914      C3915   1.330       .  A
C3915      C3916   1.396       .  A
C3916      H3920   1.083       .  S
C3921      C3926   1.382       .  A
C3921      C3922   1.402       .  A
C3921      O3927   1.318       .  A
C3922      C3923   1.402       .  A
C3922      H3933   1.082       .  S
C3923      C3932   1.360   1_655  A
C3923      C3924   1.382       .  A
C3924      C3925   1.398       .  A
C3924      O3930   1.315       .  A
C3925      C3926   1.398       .  A
C3925      H3934   1.083       .  S
C3926      C3929   1.355       .  A
O3927      C3928   1.329       .  A
C3928      C3929   1.387       .  A
C3929      H3935   1.083       .  S
O3930      C3931   1.327   1_655  A
C3931      C3932   1.389       .  A
C3932      H3936   1.083       .  S
C3937      C3942   1.380       .  A
C3937      C3938   1.405       .  A
C3937      O3943   1.331       .  A
C3938      C3939   1.410       .  A
C3938      H3949   1.082       .  S
C3939      C3948   1.356       .  A
C3939      C3940   1.380       .  A
C3940      C3941   1.407       .  A
C3940      O3946   1.333       .  A
C3941      C3942   1.412       .  A
C3941      H3950   1.082       .  S
C3942      C3945   1.359       .  A
O3943      C3944   1.333       .  A
C3944      C3945   1.397       .  A
C3945      H3951   1.083       .  S
O3946      C3947   1.334       .  A
C3947      C3948   1.397       .  A
C3948      H3952   1.083       .  S
C3953      C3958   1.381       .  A
C3953      C3954   1.404       .  A
C3953      O3959   1.331       .  A
C3954      C3955   1.409   1_545  A
C3954      H3965   1.082       .  S
C3955      C3964   1.355       .  A
C3955      C3956   1.380       .  A
C3956      C3957   1.406       .  A
C3956      O3962   1.331       .  A
C3957      C3958   1.411   1_565  A
C3957      H3966   1.082       .  S
C3958      C3961   1.357       .  A
O3959      C3960   1.332       .  A
C3960      C3961   1.398       .  A
C3961      H3967   1.083       .  S
O3962      C3963   1.334       .  A
C3963      C3964   1.394       .  A
C3964      H3968   1.083       .  S
C3969      C3974   1.378       .  A
C3969      C3970   1.409   1_455  A
C3969      O3975   1.315       .  A
C3970      C3971   1.403       .  A
C3970      H3981   1.082       .  S
C3971      C3980   1.375       .  A
C3971      C3972   1.378       .  A
C3972      C3973   1.412   1_655  A
C3972      O3978   1.317       .  A
C3973      C3974   1.406       .  A
C3973      H3982   1.082       .  S
C3974      C3977   1.378       .  A
O3975      C3976   1.333       .  A
C3976      C3977   1.394       .  A
C3977      H3983   1.082       .  S
O3978      C3979   1.335       .  A
C3979      C3980   1.392       .  A
C3980      H3984   1.082       .  S
C3985      C3990   1.381   1_545  A
C3985      C3986   1.405       .  A
C3985      O3991   1.320       .  A
C3986      C3987   1.404   1_545  A
C3986      H3997   1.082       .  S
C3987      C3996   1.365       .  A
C3987      C3988   1.382       .  A
C3988      C3989   1.397       .  A
C3988      O3994   1.313       .  A
C3989      C3990   1.396       .  A
C3989      H3998   1.083       .  S
C3990      C3993   1.355   1_565  A
O3991      C3992   1.330       .  A
C3992      C3993   1.387       .  A
C3993      H3999   1.083   1_545  S
O3994      C3995   1.326       .  A
C3995      C3996   1.391       .  A
C3996      H4000   1.082       .  S
C4001      C4006   1.381       .  A
C4001      C4002   1.406       .  A
C4001      O4007   1.321       .  A
C4002      C4003   1.405   1_655  A
C4002      H4013   1.082   1_655  S
C4003      C4012   1.366       .  A
C4003      C4004   1.382   1_455  A
C4004      C4005   1.398       .  A
C4004      O4010   1.314       .  A
C4005      C4006   1.397       .  A
C4005      H4014   1.083       .  S
C4006      C4009   1.356       .  A
O4007      C4008   1.332       .  A
C4008      C4009   1.387       .  A
C4009      H4015   1.083       .  S
O4010      C4011   1.327   1_655  A
C4011      C4012   1.392       .  A
C4012      H4016   1.082       .  S
C4017      C4022   1.382       .  A
C4017      C4018   1.396       .  A
C4017      O4023   1.312       .  A
C4018      C4019   1.395       .  A
C4018      H4029   1.083       .  S
C4019      C4028   1.354       .  A
C4019      C4020   1.382       .  A
C4020      C4021   1.403       .  A
C4020      O4026   1.318       .  A
C4021      C4022   1.402       .  A
C4021      H4030   1.082       .  S
C4022      C4025   1.362       .  A
O4023      C4024   1.326       .  A
C4024      C4025   1.390       .  A
C4025      H4031   1.083       .  S
O4026      C4027   1.329       .  A
C4027      C4028   1.386       .  A
C4028      H4032   1.083       .  S
C4033      C4038   1.379       .  A
C4033      C4034   1.405       .  A
C4033      O4039   1.311       .  A
C4034      C4035   1.400       .  A
C4034      H4045   1.082       .  S
C4035      C4044   1.371       .  A
C4035      C4036   1.379       .  A
C4036      C4037   1.410       .  A
C4036      O4042   1.316       .  A
C4037      C4038   1.405       .  A
C4037      H4046   1.082       .  S
C4038      C4041   1.376       .  A
O4039      C4040   1.332       .  A
C4040      C4041   1.393       .  A
C4041      H4047   1.082       .  S
O4042      C4043   1.335       .  A
C4043      C4044   1.389       .  A
C4044      H4048   1.082       .  S
C4049      C4054   1.382       .  A
C4049      C4050   1.395       .  A
C4049      O4055   1.313       .  A
C4050      C4051   1.395       .  A
C4050      H4061   1.083       .  S
C4051      C4060   1.354       .  A
C4051      C4052   1.382       .  A
C4052      C4053   1.406       .  A
C4052      O4058   1.321       .  A
C4053      C4054   1.405       .  A
C4053      H4062   1.082       .  S
C4054      C4057   1.365       .  A
O4055      C4056   1.325       .  A
C4056      C4057   1.392       .  A
C4057      H4063   1.083       .  S
O4058      C4059   1.331       .  A
C4059      C4060   1.385       .  A
C4060      H4064   1.083       .  S
C4065      C4070   1.381       .  A
C4065      C4066   1.405       .  A
C4065      O4071   1.331       .  A
C4066      C4067   1.410       .  A
C4066      H4077   1.082       .  S
C4067      C4076   1.357       .  A
C4067      C4068   1.381       .  A
C4068      C4069   1.405       .  A
C4068      O4074   1.331       .  A
C4069      C4070   1.409       .  A
C4069      H4078   1.082       .  S
C4070      C4073   1.356       .  A
O4071      C4072   1.332       .  A
C4072      C4073   1.396       .  A
C4073      H4079   1.083       .  S
O4074      C4075   1.333       .  A
C4075      C4076   1.396       .  A
C4076      H4080   1.083       .  S
C4081      C4086   1.378       .  A
C4081      C4082   1.411       .  A
C4081      O4087   1.316       .  A
C4082      C4083   1.405       .  A
C4082      H4093   1.082       .  S
C4083      C4092   1.377       .  A
C4083      C4084   1.378       .  A
C4084      C4085   1.411       .  A
C4084      O4090   1.317       .  A
C4085      C4086   1.406       .  A
C4085      H4094   1.082       .  S
C4086      C4089   1.379       .  A
O4087      C4088   1.335       .  A
C4088      C4089   1.394       .  A
C4089      H4095   1.082       .  S
O4090      C4091   1.335       .  A
C4091      C4092   1.393       .  A
C4092      H4096   1.082       .  S
C4097      C4102   1.381       .  A
C4097      C4098   1.402       .  A
C4097      O4103   1.329       .  A
C4098      C4099   1.407       .  A
C4098      H4109   1.082       .  S
C4099      C4108   1.353       .  A
C4099      C4100   1.381       .  A
C4100      C4101   1.405       .  A
C4100      O4106   1.331       .  A
C4101      C4102   1.410       .  A
C4101      H4110   1.082       .  S
C4102      C4105   1.356       .  A
O4103      C4104   1.331       .  A
C4104      C4105   1.396       .  A
C4105      H4111   1.083       .  S
O4106      C4107   1.333       .  A
C4107      C4108   1.394       .  A
C4108      H4112   1.083       .  S
C4113      C4118   1.380       .  A
C4113      C4114   1.406       .  A
C4113      O4119   1.332       .  A
C4114      C4115   1.410   1_655  A
C4114      H4125   1.082       .  S
C4115      C4124   1.357       .  A
C4115      C4116   1.380       .  A
C4116      C4117   1.405       .  A
C4116      O4122   1.331       .  A
C4117      C4118   1.410   1_455  A
C4117      H4126   1.082       .  S
C4118      C4121   1.358       .  A
O4119      C4120   1.333       .  A
C4120      C4121   1.397       .  A
C4121      H4127   1.083       .  S
O4122      C4123   1.332       .  A
C4123      C4124   1.397       .  A
C4124      H4128   1.083       .  S
C4129      C4134   1.380       .  A
C4129      C4130   1.406   1_556  A
C4129      O4135   1.332       .  A
C4130      C4131   1.411       .  A
C4130      H4141   1.082   1_554  S
C4131      C4140   1.358       .  A
C4131      C4132   1.380       .  A
C4132      C4133   1.405       .  A
C4132      O4138   1.330       .  A
C4133      C4134   1.409   1_554  A
C4133      H4142   1.082       .  S
C4134      C4137   1.355       .  A
O4135      C4136   1.333       .  A
C4136      C4137   1.396       .  A
C4137      H4143   1.083       .  S
O4138      C4139   1.333       .  A
C4139      C4140   1.396       .  A
C4140      H4144   1.083       .  S
C4145      C4150   1.378       .  A
C4145      C4146   1.412       .  A
C4145      O4151   1.316       .  A
C4146      C4147   1.406       .  A
C4146      H4157   1.082       .  S
C4147      C4156   1.379       .  A
C4147      C4148   1.378       .  A
C4148      C4149   1.411       .  A
C4148      O4154   1.315       .  A
C4149      C4150   1.405       .  A
C4149      H4158   1.082       .  S
C4150      C4153   1.377       .  A
O4151      C4152   1.335       .  A
C4152      C4153   1.394       .  A
C4153      H4159   1.082       .  S
O4154      C4155   1.335       .  A
C4155      C4156   1.394       .  A
C4156      H4160   1.082       .  S
C4161      C4166   1.381       .  A
C4161      C4162   1.403       .  A
C4161      O4167   1.331       .  A
C4162      C4163   1.408       .  A
C4162      H4173   1.082       .  S
C4163      C4172   1.354       .  A
C4163      C4164   1.380       .  A
C4164      C4165   1.406       .  A
C4164      O4170   1.331       .  A
C4165      C4166   1.411       .  A
C4165      H4174   1.082       .  S
C4166      C4169   1.356       .  A
O4167      C4168   1.332       .  A
C4168      C4169   1.397       .  A
C4169      H4175   1.083       .  S
O4170      C4171   1.334       .  A
C4171      C4172   1.395       .  A
C4172      H4176   1.083       .  S
C4177      C4182   1.381       .  A
C4177      C4178   1.402       .  A
C4177      O4183   1.329       .  A
C4178      C4179   1.407       .  A
C4178      H4189   1.082       .  S
C4179      C4188   1.351       .  A
C4179      C4180   1.381       .  A
C4180      C4181   1.403       .  A
C4180      O4186   1.330       .  A
C4181      C4182   1.408       .  A
C4181      H4190   1.082       .  S
C4182      C4185   1.353       .  A
O4183      C4184   1.331       .  A
C4184      C4185   1.396       .  A
C4185      H4191   1.083       .  S
O4186      C4187   1.331       .  A
C4187      C4188   1.395       .  A
C4188      H4192   1.083       .  S
C4193      C4198   1.382       .  A
C4193      C4194   1.402   1_556  A
C4193      O4199   1.317       .  A
C4194      C4195   1.401       .  A
C4194      H4205   1.082       .  S
C4195      C4204   1.362       .  A
C4195      C4196   1.382       .  A
C4196      C4197   1.398   1_554  A
C4196      O4202   1.313       .  A
C4197      C4198   1.397       .  A
C4197      H4206   1.083       .  S
C4198      C4201   1.356       .  A
O4199      C4200   1.328       .  A
C4200      C4201   1.387       .  A
C4201      H4207   1.083       .  S
O4202      C4203   1.327       .  A
C4203      C4204   1.388       .  A
C4204      H4208   1.083       .  S
C4209      C4214   1.380       .  A
C4209      C4210   1.408       .  A
C4209      O4215   1.334       .  A
C4210      C4211   1.413   1_655  A
C4210      H4221   1.082       .  S
C4211      C4220   1.358       .  A
C4211      C4212   1.380       .  A
C4212      C4213   1.405       .  A
C4212      O4218   1.332       .  A
C4213      C4214   1.410   1_455  A
C4213      H4222   1.082       .  S
C4214      C4217   1.356       .  A
O4215      C4216   1.335       .  A
C4216      C4217   1.396       .  A
C4217      H4223   1.083       .  S
O4218      C4219   1.333       .  A
C4219      C4220   1.397       .  A
C4220      H4224   1.083       .  S
C4225      C4230   1.381       .  A
C4225      C4226   1.404       .  A
C4225      O4231   1.328       .  A
C4226      C4227   1.408       .  A
C4226      H4237   1.082       .  S
C4227      C4236   1.356       .  A
C4227      C4228   1.380       .  A
C4228      C4229   1.406       .  A
C4228      O4234   1.330       .  A
C4229      C4230   1.410       .  A
C4229      H4238   1.082       .  S
C4230      C4233   1.359       .  A
O4231      C4232   1.332       .  A
C4232      C4233   1.396       .  A
C4233      H4239   1.083       .  S
O4234      C4235   1.333       .  A
C4235      C4236   1.395       .  A
C4236      H4240   1.083       .  S
C4241      C4246   1.378       .  A
C4241      C4242   1.413       .  A
C4241      O4247   1.316       .  A
C4242      C4243   1.407       .  A
C4242      H4253   1.082       .  S
C4243      C4252   1.381       .  A
C4243      C4244   1.378       .  A
C4244      C4245   1.408       .  A
C4244      O4250   1.313       .  A
C4245      C4246   1.402       .  A
C4245      H4254   1.082       .  S
C4246      C4249   1.375       .  A
O4247      C4248   1.335       .  A
C4248      C4249   1.392       .  A
C4249      H4255   1.082       .  S
O4250      C4251   1.333       .  A
C4251      C4252   1.395       .  A
C4252      H4256   1.082       .  S
C4257      C4262   1.380       .  A
C4257      C4258   1.405       .  A
C4257      O4263   1.328       .  A
C4258      C4259   1.408       .  A
C4258      H4269   1.082       .  S
C4259      C4268   1.356       .  A
C4259      C4260   1.380       .  A
C4260      C4261   1.407       .  A
C4260      O4266   1.331       .  A
C4261      C4262   1.410       .  A
C4261      H4270   1.082       .  S
C4262      C4265   1.360       .  A
O4263      C4264   1.332       .  A
C4264      C4265   1.395       .  A
C4265      H4271   1.083       .  S
O4266      C4267   1.333       .  A
C4267      C4268   1.396       .  A
C4268      H4272   1.083       .  S
C4273      C4278   1.383   1_655  A
C4273      C4274   1.397       .  A
C4273      O4279   1.315       .  A
C4274      C4275   1.397       .  A
C4274      H4285   1.083       .  S
C4275      C4284   1.354       .  A
C4275      C4276   1.383       .  A
C4276      C4277   1.400       .  A
C4276      O4282   1.317       .  A
C4277      C4278   1.400   1_655  A
C4277      H4286   1.082   1_655  S
C4278      C4281   1.358       .  A
O4279      C4280   1.327   1_655  A
C4280      C4281   1.388       .  A
C4281      H4287   1.083       .  S
O4282      C4283   1.327       .  A
C4283      C4284   1.386       .  A
C4284      H4288   1.083       .  S
C4289      C4294   1.380       .  A
C4289      C4290   1.407   1_556  A
C4289      O4295   1.333       .  A
C4290      C4291   1.411       .  A
C4290      H4301   1.082   1_554  S
C4291      C4300   1.358       .  A
C4291      C4292   1.380       .  A
C4292      C4293   1.405       .  A
C4292      O4298   1.331       .  A
C4293      C4294   1.410   1_554  A
C4293      H4302   1.082       .  S
C4294      C4297   1.356       .  A
O4295      C4296   1.334       .  A
C4296      C4297   1.396       .  A
C4297      H4303   1.083       .  S
O4298      C4299   1.333       .  A
C4299      C4300   1.396       .  A
C4300      H4304   1.083       .  S
C4305      C4310   1.382   1_655  A
C4305      C4306   1.396       .  A
C4305      O4311   1.312       .  A
C4306      C4307   1.395       .  A
C4306      H4317   1.083       .  S
C4307      C4316   1.354   1_556  A
C4307      C4308   1.382   1_556  A
C4308      C4309   1.403       .  A
C4308      O4314   1.318       .  A
C4309      C4310   1.402   1_654  A
C4309      H4318   1.082   1_655  S
C4310      C4313   1.362       .  A
O4311      C4312   1.325   1_655  A
C4312      C4313   1.389       .  A
C4313      H4319   1.083       .  S
O4314      C4315   1.329       .  A
C4315      C4316   1.386       .  A
C4316      H4320   1.083   1_554  S
C4321      C4326   1.379       .  A
C4321      C4322   1.409       .  A
C4321      O4327   1.315       .  A
C4322      C4323   1.404       .  A
C4322      H4333   1.082       .  S
C4323      C4332   1.375       .  A
C4323      C4324   1.379       .  A
C4324      C4325   1.408       .  A
C4324      O4330   1.315       .  A
C4325      C4326   1.403       .  A
C4325      H4334   1.082       .  S
C4326      C4329   1.374       .  A
O4327      C4328   1.334       .  A
C4328      C4329   1.391       .  A
C4329      H4335   1.082       .  S
O4330      C4331   1.333       .  A
C4331      C4332   1.392       .  A
C4332      H4336   1.082       .  S
C4337      C4342   1.382       .  A
C4337      C4338   1.402       .  A
C4337      O4343   1.318       .  A
C4338      C4339   1.401       .  A
C4338      H4349   1.082       .  S
C4339      C4348   1.361       .  A
C4339      C4340   1.382       .  A
C4340      C4341   1.398       .  A
C4340      O4346   1.314       .  A
C4341      C4342   1.398       .  A
C4341      H4350   1.083       .  S
C4342      C4345   1.355       .  A
O4343      C4344   1.328       .  A
C4344      C4345   1.388       .  A
C4345      H4351   1.083       .  S
O4346      C4347   1.328       .  A
C4347      C4348   1.389       .  A
C4348      H4352   1.082       .  S
C4353      C4358   1.378       .  A
C4353      C4354   1.410       .  A
C4353      O4359   1.315       .  A
C4354      C4355   1.404       .  A
C4354      H4365   1.082       .  S
C4355      C4364   1.376       .  A
C4355      C4356   1.378       .  A
C4356      C4357   1.410       .  A
C4356      O4362   1.315       .  A
C4357      C4358   1.404       .  A
C4357      H4366   1.082       .  S
C4358      C4361   1.376       .  A
O4359      C4360   1.334       .  A
C4360      C4361   1.393       .  A
C4361      H4367   1.082       .  S
O4362      C4363   1.334       .  A
C4363      C4364   1.393       .  A
C4364      H4368   1.082       .  S
C4369      C4374   1.378       .  A
C4369      C4370   1.409   1_556  A
C4369      O4375   1.315       .  A
C4370      C4371   1.403       .  A
C4370      H4381   1.082       .  S
C4371      C4380   1.375       .  A
C4371      C4372   1.378       .  A
C4372      C4373   1.411       .  A
C4372      O4378   1.316       .  A
C4373      C4374   1.406   1_554  A
C4373      H4382   1.082       .  S
C4374      C4377   1.378       .  A
O4375      C4376   1.334       .  A
C4376      C4377   1.394       .  A
C4377      H4383   1.082       .  S
O4378      C4379   1.335       .  A
C4379      C4380   1.392       .  A
C4380      H4384   1.082       .  S
C4385      C4390   1.382       .  A
C4385      C4386   1.404   1_556  A
C4385      O4391   1.318       .  A
C4386      C4387   1.403       .  A
C4386      H4397   1.082       .  S
C4387      C4396   1.363       .  A
C4387      C4388   1.382       .  A
C4388      C4389   1.396   1_554  A
C4388      O4394   1.313       .  A
C4389      C4390   1.395       .  A
C4389      H4398   1.083       .  S
C4390      C4393   1.354       .  A
O4391      C4392   1.330       .  A
C4392      C4393   1.386       .  A
C4393      H4399   1.083       .  S
O4394      C4395   1.326       .  A
C4395      C4396   1.391       .  A
C4396      H4400   1.083       .  S
C4401      C4406   1.379       .  A
C4401      C4402   1.409       .  A
C4401      O4407   1.315       .  A
C4402      C4403   1.404       .  A
C4402      H4413   1.082       .  S
C4403      C4412   1.376       .  A
C4403      C4404   1.378       .  A
C4404      C4405   1.408       .  A
C4404      O4410   1.314       .  A
C4405      C4406   1.403       .  A
C4405      H4414   1.082       .  S
C4406      C4409   1.374       .  A
O4407      C4408   1.334       .  A
C4408      C4409   1.391       .  A
C4409      H4415   1.082       .  S
O4410      C4411   1.333       .  A
C4411      C4412   1.392       .  A
C4412      H4416   1.082       .  S
C4417      C4422   1.379       .  A
C4417      C4418   1.407   1_455  A
C4417      O4423   1.312       .  A
C4418      C4419   1.401       .  A
C4418      H4429   1.082       .  S
C4419      C4428   1.373       .  A
C4419      C4420   1.379       .  A
C4420      C4421   1.408   1_655  A
C4420      O4426   1.313       .  A
C4421      C4422   1.403       .  A
C4421      H4430   1.082       .  S
C4422      C4425   1.374       .  A
O4423      C4424   1.332       .  A
C4424      C4425   1.392       .  A
C4425      H4431   1.082       .  S
O4426      C4427   1.334       .  A
C4427      C4428   1.390       .  A
C4428      H4432   1.082       .  S
C4433      C4438   1.380       .  A
C4433      C4434   1.407       .  A
C4433      O4439   1.333       .  A
C4434      C4435   1.412   1_554  A
C4434      H4445   1.082       .  S
C4435      C4444   1.357       .  A
C4435      C4436   1.381       .  A
C4436      C4437   1.400   1_556  A
C4436      O4442   1.327       .  A
C4437      C4438   1.405       .  A
C4437      H4446   1.082   1_554  S
C4438      C4441   1.349       .  A
O4439      C4440   1.334       .  A
C4440      C4441   1.393       .  A
C4441      H4447   1.083       .  S
O4442      C4443   1.329       .  A
C4443      C4444   1.397       .  A
C4444      H4448   1.083       .  S
C4449      C4454   1.382       .  A
C4449      C4450   1.394       .  A
C4449      O4455   1.310       .  A
C4450      C4451   1.393       .  A
C4450      H4461   1.083       .  S
C4451      C4460   1.350   1_556  A
C4451      C4452   1.382   1_556  A
C4452      C4453   1.404       .  A
C4452      O4458   1.319       .  A
C4453      C4454   1.403   1_554  A
C4453      H4462   1.082       .  S
C4454      C4457   1.363       .  A
O4455      C4456   1.324       .  A
C4456      C4457   1.390       .  A
C4457      H4463   1.083       .  S
O4458      C4459   1.330       .  A
C4459      C4460   1.385       .  A
C4460      H4464   1.083   1_554  S
C4465      C4470   1.382       .  A
C4465      C4466   1.403       .  A
C4465      O4471   1.319       .  A
C4466      C4467   1.403   1_655  A
C4466      H4477   1.082   1_655  S
C4467      C4476   1.362       .  A
C4467      C4468   1.382   1_455  A
C4468      C4469   1.396       .  A
C4468      O4474   1.313   1_655  A
C4469      C4470   1.395       .  A
C4469      H4478   1.083       .  S
C4470      C4473   1.353       .  A
O4471      C4472   1.329       .  A
C4472      C4473   1.385       .  A
C4473      H4479   1.083       .  S
O4474      C4475   1.326       .  A
C4475      C4476   1.390       .  A
C4476      H4480   1.083       .  S
C4481      C4486   1.382       .  A
C4481      C4482   1.400       .  A
C4481      O4487   1.317       .  A
C4482      C4483   1.400       .  A
C4482      H4493   1.082       .  S
C4483      C4492   1.360       .  A
C4483      C4484   1.383       .  A
C4484      C4485   1.397       .  A
C4484      O4490   1.312       .  A
C4485      C4486   1.396       .  A
C4485      H4494   1.083       .  S
C4486      C4489   1.354       .  A
O4487      C4488   1.328       .  A
C4488      C4489   1.387       .  A
C4489      H4495   1.083       .  S
O4490      C4491   1.327       .  A
C4491      C4492   1.387       .  A
C4492      H4496   1.083       .  S
C4497      C4502   1.378       .  A
C4497      C4498   1.409       .  A
C4497      O4503   1.316       .  A
C4498      C4499   1.404       .  A
C4498      H4509   1.082       .  S
C4499      C4508   1.375       .  A
C4499      C4500   1.379       .  A
C4500      C4501   1.410       .  A
C4500      O4506   1.316       .  A
C4501      C4502   1.405       .  A
C4501      H4510   1.082       .  S
C4502      C4505   1.376       .  A
O4503      C4504   1.334       .  A
C4504      C4505   1.393       .  A
C4505      H4511   1.082       .  S
O4506      C4507   1.334       .  A
C4507      C4508   1.392       .  A
C4508      H4512   1.082       .  S
C4513      C4518   1.380       .  A
C4513      C4514   1.407       .  A
C4513      O4519   1.331       .  A
C4514      C4515   1.411       .  A
C4514      H4525   1.082       .  S
C4515      C4524   1.359       .  A
C4515      C4516   1.380       .  A
C4516      C4517   1.405       .  A
C4516      O4522   1.330       .  A
C4517      C4518   1.409       .  A
C4517      H4526   1.082       .  S
C4518      C4521   1.357       .  A
O4519      C4520   1.334       .  A
C4520      C4521   1.395       .  A
C4521      H4527   1.083       .  S
O4522      C4523   1.332       .  A
C4523      C4524   1.398       .  A
C4524      H4528   1.083       .  S
C4529      C4534   1.381       .  A
C4529      C4530   1.404       .  A
C4529      O4535   1.331       .  A
C4530      C4531   1.409       .  A
C4530      H4541   1.082       .  S
C4531      C4540   1.354       .  A
C4531      C4532   1.381       .  A
C4532      C4533   1.405       .  A
C4532      O4538   1.331       .  A
C4533      C4534   1.410       .  A
C4533      H4542   1.082       .  S
C4534      C4537   1.354       .  A
O4535      C4536   1.332       .  A
C4536      C4537   1.396       .  A
C4537      H4543   1.083       .  S
O4538      C4539   1.333       .  A
C4539      C4540   1.395       .  A
C4540      H4544   1.083       .  S
C4545      C4550   1.382       .  A
C4545      C4546   1.404       .  A
C4545      O4551   1.319       .  A
C4546      C4547   1.403       .  A
C4546      H4557   1.082       .  S
C4547      C4556   1.364       .  A
C4547      C4548   1.382       .  A
C4548      C4549   1.397       .  A
C4548      O4554   1.313       .  A
C4549      C4550   1.396       .  A
C4549      H4558   1.083       .  S
C4550      C4553   1.355       .  A
O4551      C4552   1.330       .  A
C4552      C4553   1.387       .  A
C4553      H4559   1.083       .  S
O4554      C4555   1.327       .  A
C4555      C4556   1.391       .  A
C4556      H4560   1.082       .  S
C4561      C4566   1.380       .  A
C4561      C4562   1.407       .  A
C4561      O4567   1.333       .  A
C4562      C4563   1.412       .  A
C4562      H4573   1.082       .  S
C4563      C4572   1.356       .  A
C4563      C4564   1.381       .  A
C4564      C4565   1.402       .  A
C4564      O4570   1.330       .  A
C4565      C4566   1.408       .  A
C4565      H4574   1.082       .  S
C4566      C4569   1.352       .  A
O4567      C4568   1.334       .  A
C4568      C4569   1.395       .  A
C4569      H4575   1.083       .  S
O4570      C4571   1.332       .  A
C4571      C4572   1.397       .  A
C4572      H4576   1.083       .  S
C4577      C4582   1.382       .  A
C4577      C4578   1.395       .  A
C4577      O4583   1.312       .  A
C4578      C4579   1.395       .  A
C4578      H4589   1.083       .  S
C4579      C4588   1.352       .  A
C4579      C4580   1.382       .  A
C4580      C4581   1.401       .  A
C4580      O4586   1.317       .  A
C4581      C4582   1.400       .  A
C4581      H4590   1.082       .  S
C4582      C4585   1.359       .  A
O4583      C4584   1.325       .  A
C4584      C4585   1.388       .  A
C4585      H4591   1.083       .  S
O4586      C4587   1.328       .  A
C4587      C4588   1.386       .  A
C4588      H4592   1.083       .  S
C4593      C4598   1.380       .  A
C4593      C4594   1.405       .  A
C4593      O4599   1.330       .  A
C4594      C4595   1.409   1_455  A
C4594      H4605   1.082       .  S
C4595      C4604   1.356       .  A
C4595      C4596   1.381       .  A
C4596      C4597   1.400       .  A
C4596      O4602   1.325       .  A
C4597      C4598   1.404   1_655  A
C4597      H4606   1.082       .  S
C4598      C4601   1.351       .  A
O4599      C4600   1.333       .  A
C4600      C4601   1.393       .  A
C4601      H4607   1.083       .  S
O4602      C4603   1.329       .  A
C4603      C4604   1.395       .  A
C4604      H4608   1.083       .  S
C4609      C4614   1.382   1_455  A
C4609      C4610   1.404   1_455  A
C4609      O4615   1.319       .  A
C4610      C4611   1.403       .  A
C4610      H4621   1.082   1_655  S
C4611      C4620   1.365       .  A
C4611      C4612   1.382       .  A
C4612      C4613   1.394       .  A
C4612      O4618   1.310       .  A
C4613      C4614   1.394       .  A
C4613      H4622   1.083       .  S
C4614      C4617   1.351       .  A
O4615      C4616   1.329       .  A
C4616      C4617   1.386   1_455  A
C4617      H4623   1.083       .  S
O4618      C4619   1.325       .  A
C4619      C4620   1.390       .  A
C4620      H4624   1.082       .  S
C4625      C4630   1.382       .  A
C4625      C4626   1.397       .  A
C4625      O4631   1.314       .  A
C4626      C4627   1.397       .  A
C4626      H4637   1.083       .  S
C4627      C4636   1.354       .  A
C4627      C4628   1.382       .  A
C4628      C4629   1.402       .  A
C4628      O4634   1.318       .  A
C4629      C4630   1.401       .  A
C4629      H4638   1.082       .  S
C4630      C4633   1.360       .  A
O4631      C4632   1.327       .  A
C4632      C4633   1.388       .  A
C4633      H4639   1.083       .  S
O4634      C4635   1.329       .  A
C4635      C4636   1.387       .  A
C4636      H4640   1.083       .  S
C4641      C4646   1.380       .  A
C4641      C4642   1.407       .  A
C4641      O4647   1.332       .  A
C4642      C4643   1.411       .  A
C4642      H4653   1.082       .  S
C4643      C4652   1.359       .  A
C4643      C4644   1.380       .  A
C4644      C4645   1.405       .  A
C4644      O4650   1.331       .  A
C4645      C4646   1.409       .  A
C4645      H4654   1.082       .  S
C4646      C4649   1.356       .  A
O4647      C4648   1.334       .  A
C4648      C4649   1.395       .  A
C4649      H4655   1.083       .  S
O4650      C4651   1.333       .  A
C4651      C4652   1.396       .  A
C4652      H4656   1.083       .  S
C4657      C4662   1.379       .  A
C4657      C4658   1.406       .  A
C4657      O4663   1.311       .  A
C4658      C4659   1.400       .  A
C4658      H4669   1.082       .  S
C4659      C4668   1.372       .  A
C4659      C4660   1.379       .  A
C4660      C4661   1.408       .  A
C4660      O4666   1.312       .  A
C4661      C4662   1.402       .  A
C4661      H4670   1.082       .  S
C4662      C4665   1.375       .  A
O4663      C4664   1.332       .  A
C4664      C4665   1.391       .  A
C4665      H4671   1.082       .  S
O4666      C4667   1.333       .  A
C4667      C4668   1.390       .  A
C4668      H4672   1.082       .  S
C4673      C4678   1.380       .  A
C4673      C4674   1.407       .  A
C4673      O4679   1.333       .  A
C4674      C4675   1.412       .  A
C4674      H4685   1.082       .  S
C4675      C4684   1.359       .  A
C4675      C4676   1.380       .  A
C4676      C4677   1.406       .  A
C4676      O4682   1.331       .  A
C4677      C4678   1.410       .  A
C4677      H4686   1.082       .  S
C4678      C4681   1.357       .  A
O4679      C4680   1.334       .  A
C4680      C4681   1.396       .  A
C4681      H4687   1.083       .  S
O4682      C4683   1.333       .  A
C4683      C4684   1.397       .  A
C4684      H4688   1.083       .  S
C4689      C4694   1.378       .  A
C4689      C4690   1.412   1_565  A
C4689      O4695   1.317       .  A
C4690      C4691   1.406       .  A
C4690      H4701   1.082       .  S
C4691      C4700   1.378       .  A
C4691      C4692   1.378       .  A
C4692      C4693   1.412   1_545  A
C4692      O4698   1.317       .  A
C4693      C4694   1.406       .  A
C4693      H4702   1.082       .  S
C4694      C4697   1.379       .  A
O4695      C4696   1.336       .  A
C4696      C4697   1.394       .  A
C4697      H4703   1.082       .  S
O4698      C4699   1.335       .  A
C4699      C4700   1.394       .  A
C4700      H4704   1.082       .  S
C4705      C4710   1.381       .  A
C4705      C4706   1.405       .  A
C4705      O4711   1.331       .  A
C4706      C4707   1.410   1_554  A
C4706      H4717   1.082       .  S
C4707      C4716   1.355       .  A
C4707      C4708   1.380       .  A
C4708      C4709   1.406   1_556  A
C4708      O4714   1.332       .  A
C4709      C4710   1.411       .  A
C4709      H4718   1.082   1_554  S
C4710      C4713   1.357       .  A
O4711      C4712   1.332       .  A
C4712      C4713   1.397       .  A
C4713      H4719   1.083       .  S
O4714      C4715   1.333       .  A
C4715      C4716   1.396       .  A
C4716      H4720   1.083       .  S
C4721      C4726   1.378       .  A
C4721      C4722   1.409       .  A
C4721      O4727   1.314       .  A
C4722      C4723   1.403       .  A
C4722      H4733   1.082       .  S
C4723      C4732   1.376       .  A
C4723      C4724   1.378       .  A
C4724      C4725   1.413       .  A
C4724      O4730   1.317       .  A
C4725      C4726   1.407       .  A
C4725      H4734   1.082       .  S
C4726      C4729   1.381       .  A
O4727      C4728   1.334       .  A
C4728      C4729   1.395       .  A
C4729      H4735   1.082       .  S
O4730      C4731   1.336       .  A
C4731      C4732   1.392       .  A
C4732      H4736   1.082       .  S
C4737      C4742   1.381       .  A
C4737      C4738   1.405       .  A
C4737      O4743   1.331       .  A
C4738      C4739   1.409       .  A
C4738      H4749   1.082       .  S
C4739      C4748   1.355       .  A
C4739      C4740   1.381       .  A
C4740      C4741   1.403       .  A
C4740      O4746   1.330       .  A
C4741      C4742   1.408       .  A
C4741      H4750   1.082       .  S
C4742      C4745   1.354       .  A
O4743      C4744   1.333       .  A
C4744      C4745   1.395       .  A
C4745      H4751   1.083       .  S
O4746      C4747   1.332       .  A
C4747      C4748   1.395       .  A
C4748      H4752   1.083       .  S
C4753      C4758   1.381       .  A
C4753      C4754   1.403       .  A
C4753      O4759   1.331       .  A
C4754      C4755   1.408       .  A
C4754      H4765   1.082       .  S
C4755      C4764   1.354       .  A
C4755      C4756   1.380       .  A
C4756      C4757   1.408       .  A
C4756      O4762   1.334       .  A
C4757      C4758   1.413       .  A
C4757      H4766   1.082       .  S
C4758      C4761   1.357       .  A
O4759      C4760   1.331       .  A
C4760      C4761   1.398       .  A
C4761      H4767   1.083       .  S
O4762      C4763   1.335       .  A
C4763      C4764   1.396       .  A
C4764      H4768   1.083       .  S
C4769      C4774   1.382       .  A
C4769      C4770   1.405       .  A
C4769      O4775   1.319       .  A
C4770      C4771   1.404   1_554  A
C4770      H4781   1.082       .  S
C4771      C4780   1.364       .  A
C4771      C4772   1.382       .  A
C4772      C4773   1.396       .  A
C4772      O4778   1.312       .  A
C4773      C4774   1.395   1_556  A
C4773      H4782   1.083       .  S
C4774      C4777   1.354       .  A
O4775      C4776   1.330       .  A
C4776      C4777   1.385       .  A
C4777      H4783   1.083       .  S
O4778      C4779   1.326       .  A
C4779      C4780   1.391       .  A
C4780      H4784   1.082       .  S
C4785      C4790   1.380       .  A
C4785      C4786   1.404       .  A
C4785      O4791   1.331       .  A
C4786      C4787   1.409   1_565  A
C4786      H4797   1.082       .  S
C4787      C4796   1.355       .  A
C4787      C4788   1.381       .  A
C4788      C4789   1.403       .  A
C4788      O4794   1.329       .  A
C4789      C4790   1.408   1_545  A
C4789      H4798   1.082       .  S
C4790      C4793   1.353       .  A
O4791      C4792   1.332       .  A
C4792      C4793   1.396       .  A
C4793      H4799   1.083       .  S
O4794      C4795   1.332       .  A
C4795      C4796   1.395       .  A
C4796      H4800   1.083       .  S
C4801      C4806   1.378       .  A
C4801      C4802   1.414       .  A
C4801      O4807   1.320       .  A
C4802      C4803   1.409       .  A
C4802      H4813   1.082       .  S
C4803      C4812   1.380       .  A
C4803      C4804   1.378       .  A
C4804      C4805   1.409       .  A
C4804      O4810   1.316       .  A
C4805      C4806   1.405       .  A
C4805      H4814   1.082       .  S
C4806      C4809   1.375       .  A
O4807      C4808   1.336       .  A
C4808      C4809   1.393       .  A
C4809      H4815   1.082       .  S
O4810      C4811   1.334       .  A
C4811      C4812   1.396       .  A
C4812      H4816   1.082       .  S
C4817      C4822   1.378       .  A
C4817      C4818   1.412       .  A
C4817      O4823   1.317       .  A
C4818      C4819   1.406       .  A
C4818      H4829   1.082       .  S
C4819      C4828   1.377       .  A
C4819      C4820   1.379       .  A
C4820      C4821   1.406       .  A
C4820      O4826   1.313       .  A
C4821      C4822   1.401       .  A
C4821      H4830   1.082       .  S
C4822      C4825   1.372       .  A
O4823      C4824   1.336       .  A
C4824      C4825   1.390       .  A
C4825      H4831   1.082       .  S
O4826      C4827   1.332       .  A
C4827      C4828   1.394       .  A
C4828      H4832   1.082       .  S
C4833      C4838   1.380       .  A
C4833      C4834   1.407       .  A
C4833      O4839   1.333       .  A
C4834      C4835   1.412       .  A
C4834      H4845   1.082       .  S
C4835      C4844   1.358       .  A
C4835      C4836   1.380       .  A
C4836      C4837   1.406       .  A
C4836      O4842   1.333       .  A
C4837      C4838   1.411       .  A
C4837      H4846   1.082       .  S
C4838      C4841   1.357       .  A
O4839      C4840   1.334       .  A
C4840      C4841   1.397       .  A
C4841      H4847   1.083       .  S
O4842      C4843   1.334       .  A
C4843      C4844   1.397       .  A
C4844      H4848   1.083       .  S
C4849      C4854   1.382   1_545  A
C4849      C4850   1.403   1_545  A
C4849      O4855   1.319       .  A
C4850      C4851   1.403       .  A
C4850      H4861   1.082   1_565  S
C4851      C4860   1.361       .  A
C4851      C4852   1.382       .  A
C4852      C4853   1.396       .  A
C4852      O4858   1.313       .  A
C4853      C4854   1.396       .  A
C4853      H4862   1.083       .  S
C4854      C4857   1.353   1_565  A
O4855      C4856   1.330       .  A
C4856      C4857   1.386       .  A
C4857      H4863   1.083   1_545  S
O4858      C4859   1.326       .  A
C4859      C4860   1.390       .  A
C4860      H4864   1.083       .  S
C4865      C4870   1.379       .  A
C4865      C4866   1.410   1_556  A
C4865      O4871   1.317       .  A
C4866      C4867   1.406       .  A
C4866      H4877   1.082       .  S
C4867      C4876   1.376       .  A
C4867      C4868   1.379       .  A
C4868      C4869   1.408       .  A
C4868      O4874   1.315       .  A
C4869      C4870   1.403   1_554  A
C4869      H4878   1.082       .  S
C4870      C4873   1.373       .  A
O4871      C4872   1.334       .  A
C4872      C4873   1.391       .  A
C4873      H4879   1.082       .  S
O4874      C4875   1.334       .  A
C4875      C4876   1.394       .  A
C4876      H4880   1.082       .  S
C4881      C4886   1.382   1_565  A
C4881      C4882   1.399       .  A
C4881      O4887   1.315   1_565  A
C4882      C4883   1.398       .  A
C4882      H4893   1.082       .  S
C4883      C4892   1.357   1_556  A
C4883      C4884   1.382   1_556  A
C4884      C4885   1.402       .  A
C4884      O4890   1.317       .  A
C4885      C4886   1.401   1_564  A
C4885      H4894   1.083   1_565  S
C4886      C4889   1.361       .  A
O4887      C4888   1.328       .  A
C4888      C4889   1.389       .  A
C4889      H4895   1.083       .  S
O4890      C4891   1.328       .  A
C4891      C4892   1.388       .  A
C4892      H4896   1.083       .  S
C4897      C4902   1.378       .  A
C4897      C4898   1.410       .  A
C4897      O4903   1.318       .  A
C4898      C4899   1.405       .  A
C4898      H4909   1.082       .  S
C4899      C4908   1.376       .  A
C4899      C4900   1.378       .  A
C4900      C4901   1.410       .  A
C4900      O4906   1.317       .  A
C4901      C4902   1.406       .  A
C4901      H4910   1.082       .  S
C4902      C4905   1.376       .  A
O4903      C4904   1.335       .  A
C4904      C4905   1.394       .  A
C4905      H4911   1.082       .  S
O4906      C4907   1.335       .  A
C4907      C4908   1.393       .  A
C4908      H4912   1.082       .  S
C4913      C4918   1.382       .  A
C4913      C4914   1.404       .  A
C4913      O4919   1.320       .  A
C4914      C4915   1.404       .  A
C4914      H4925   1.082       .  S
C4915      C4924   1.363       .  A
C4915      C4916   1.382       .  A
C4916      C4917   1.399       .  A
C4916      O4922   1.315       .  A
C4917      C4918   1.398       .  A
C4917      H4926   1.083       .  S
C4918      C4921   1.356       .  A
O4919      C4920   1.330       .  A
C4920      C4921   1.388       .  A
C4921      H4927   1.083       .  S
O4922      C4923   1.328       .  A
C4923      C4924   1.390       .  A
C4924      H4928   1.082       .  S
C4929      C4934   1.381       .  A
C4929      C4930   1.401       .  A
C4929      O4935   1.327       .  A
C4930      C4931   1.406       .  A
C4930      H4941   1.082       .  S
C4931      C4940   1.352       .  A
C4931      C4932   1.380       .  A
C4932      C4933   1.405       .  A
C4932      O4938   1.330       .  A
C4933      C4934   1.410       .  A
C4933      H4942   1.082       .  S
C4934      C4937   1.356       .  A
O4935      C4936   1.330       .  A
C4936      C4937   1.396       .  A
C4937      H4943   1.083       .  S
O4938      C4939   1.332       .  A
C4939      C4940   1.394       .  A
C4940      H4944   1.083       .  S
C4945      C4950   1.381       .  A
C4945      C4946   1.404       .  A
C4945      O4951   1.329       .  A
C4946      C4947   1.408   1_554  A
C4946      H4957   1.082       .  S
C4947      C4956   1.354       .  A
C4947      C4948   1.381       .  A
C4948      C4949   1.405   1_556  A
C4948      O4954   1.331       .  A
C4949      C4950   1.409       .  A
C4949      H4958   1.082   1_554  S
C4950      C4953   1.356       .  A
O4951      C4952   1.332       .  A
C4952      C4953   1.395       .  A
C4953      H4959   1.083       .  S
O4954      C4955   1.332       .  A
C4955      C4956   1.395       .  A
C4956      H4960   1.083       .  S
C4961      C4966   1.382       .  A
C4961      C4962   1.397       .  A
C4961      O4967   1.312       .  A
C4962      C4963   1.396   1_556  A
C4962      H4973   1.083       .  S
C4963      C4972   1.354       .  A
C4963      C4964   1.382       .  A
C4964      C4965   1.404       .  A
C4964      O4970   1.320       .  A
C4965      C4966   1.404   1_554  A
C4965      H4974   1.082       .  S
C4966      C4969   1.364       .  A
O4967      C4968   1.326       .  A
C4968      C4969   1.390       .  A
C4969      H4975   1.083       .  S
O4970      C4971   1.330       .  A
C4971      C4972   1.387       .  A
C4972      H4976   1.083       .  S
C4977      C4982   1.380       .  A
C4977      C4978   1.406       .  A
C4977      O4983   1.331       .  A
C4978      C4979   1.411       .  A
C4978      H4989   1.082       .  S
C4979      C4988   1.357       .  A
C4979      C4980   1.381       .  A
C4980      C4981   1.403       .  A
C4980      O4986   1.330       .  A
C4981      C4982   1.408       .  A
C4981      H4990   1.082       .  S
C4982      C4985   1.354       .  A
O4983      C4984   1.333       .  A
C4984      C4985   1.395       .  A
C4985      H4991   1.083       .  S
O4986      C4987   1.331       .  A
C4987      C4988   1.397       .  A
C4988      H4992   1.083       .  S
C4993      C4998   1.381       .  A
C4993      C4994   1.404       .  A
C4993      O4999   1.331       .  A
C4994      C4995   1.409   1_565  A
C4994      H5005   1.082       .  S
C4995      C5004   1.355       .  A
C4995      C4996   1.381       .  A
C4996      C4997   1.402       .  A
C4996      O5002   1.329       .  A
C4997      C4998   1.407   1_545  A
C4997      H5006   1.082       .  S
C4998      C5001   1.352       .  A
O4999      C5000   1.332       .  A
C5000      C5001   1.395       .  A
C5001      H5007   1.083       .  S
O5002      C5003   1.331       .  A
C5003      C5004   1.396       .  A
C5004      H5008   1.083       .  S
C5009      C5014   1.379       .  A
C5009      C5010   1.408       .  A
C5009      O5015   1.313       .  A
C5010      C5011   1.402   1_554  A
C5010      H5021   1.082       .  S
C5011      C5020   1.374       .  A
C5011      C5012   1.379       .  A
C5012      C5013   1.409   1_556  A
C5012      O5018   1.314       .  A
C5013      C5014   1.403       .  A
C5013      H5022   1.082       .  S
C5014      C5017   1.374       .  A
O5015      C5016   1.333       .  A
C5016      C5017   1.391       .  A
C5017      H5023   1.082       .  S
O5018      C5019   1.334       .  A
C5019      C5020   1.391       .  A
C5020      H5024   1.082       .  S
C5025      C5030   1.382   1_554  A
C5025      C5026   1.404       .  A
C5025      O5031   1.319       .  A
C5026      C5027   1.403   1_554  A
C5026      H5037   1.082       .  S
C5027      C5036   1.362       .  A
C5027      C5028   1.382       .  A
C5028      C5029   1.396       .  A
C5028      O5034   1.313       .  A
C5029      C5030   1.396       .  A
C5029      H5038   1.083       .  S
C5030      C5033   1.355   1_556  A
O5031      C5032   1.330       .  A
C5032      C5033   1.386       .  A
C5033      H5039   1.083       .  S
O5034      C5035   1.326       .  A
C5035      C5036   1.390       .  A
C5036      H5040   1.083       .  S
C5041      C5046   1.382   1_565  A
C5041      C5042   1.394       .  A
C5041      O5047   1.312   1_565  A
C5042      C5043   1.394       .  A
C5042      H5053   1.083       .  S
C5043      C5052   1.351       .  A
C5043      C5044   1.382       .  A
C5044      C5045   1.403       .  A
C5044      O5050   1.318       .  A
C5045      C5046   1.403   1_565  A
C5045      H5054   1.082   1_565  S
C5046      C5049   1.361       .  A
O5047      C5048   1.325       .  A
C5048      C5049   1.390       .  A
C5049      H5055   1.083       .  S
O5050      C5051   1.330       .  A
C5051      C5052   1.384       .  A
C5052      H5056   1.083       .  S
C5057      C5062   1.382       .  A
C5057      C5058   1.399       .  A
C5057      O5063   1.316       .  A
C5058      C5059   1.399       .  A
C5058      H5069   1.083       .  S
C5059      C5068   1.356       .  A
C5059      C5060   1.382       .  A
C5060      C5061   1.403       .  A
C5060      O5066   1.320       .  A
C5061      C5062   1.403       .  A
C5061      H5070   1.082       .  S
C5062      C5065   1.363       .  A
O5063      C5064   1.328       .  A
C5064      C5065   1.390       .  A
C5065      H5071   1.082       .  S
O5066      C5067   1.330       .  A
C5067      C5068   1.389       .  A
C5068      H5072   1.083       .  S
C5073      C5078   1.378       .  A
C5073      C5074   1.408       .  A
C5073      O5079   1.313       .  A
C5074      C5075   1.402       .  A
C5074      H5085   1.082       .  S
C5075      C5084   1.374       .  A
C5075      C5076   1.379       .  A
C5076      C5077   1.409       .  A
C5076      O5082   1.314       .  A
C5077      C5078   1.403       .  A
C5077      H5086   1.082       .  S
C5078      C5081   1.375       .  A
O5079      C5080   1.333       .  A
C5080      C5081   1.392       .  A
C5081      H5087   1.082       .  S
O5082      C5083   1.333       .  A
C5083      C5084   1.392       .  A
C5084      H5088   1.082       .  S
C5089      C5094   1.378       .  A
C5089      C5090   1.411       .  A
C5089      O5095   1.316       .  A
C5090      C5091   1.405       .  A
C5090      H5101   1.082       .  S
C5091      C5100   1.377       .  A
C5091      C5092   1.378       .  A
C5092      C5093   1.411       .  A
C5092      O5098   1.316       .  A
C5093      C5094   1.405       .  A
C5093      H5102   1.082       .  S
C5094      C5097   1.378       .  A
O5095      C5096   1.335       .  A
C5096      C5097   1.393       .  A
C5097      H5103   1.082       .  S
O5098      C5099   1.335       .  A
C5099      C5100   1.394       .  A
C5100      H5104   1.082       .  S
C5105      C5110   1.378       .  A
C5105      C5106   1.410       .  A
C5105      O5111   1.316       .  A
C5106      C5107   1.405       .  A
C5106      H5117   1.082       .  S
C5107      C5116   1.377       .  A
C5107      C5108   1.378       .  A
C5108      C5109   1.411       .  A
C5108      O5114   1.317       .  A
C5109      C5110   1.406       .  A
C5109      H5118   1.082       .  S
C5110      C5113   1.378       .  A
O5111      C5112   1.335       .  A
C5112      C5113   1.394       .  A
C5113      H5119   1.082       .  S
O5114      C5115   1.335       .  A
C5115      C5116   1.393       .  A
C5116      H5120   1.082       .  S
C5121      C5126   1.379       .  A
C5121      C5122   1.409       .  A
C5121      O5127   1.316       .  A
C5122      C5123   1.404       .  A
C5122      H5133   1.082       .  S
C5123      C5132   1.375       .  A
C5123      C5124   1.378       .  A
C5124      C5125   1.410       .  A
C5124      O5130   1.316       .  A
C5125      C5126   1.405       .  A
C5125      H5134   1.082       .  S
C5126      C5129   1.376       .  A
O5127      C5128   1.334       .  A
C5128      C5129   1.393       .  A
C5129      H5135   1.082       .  S
O5130      C5131   1.334       .  A
C5131      C5132   1.393       .  A
C5132      H5136   1.082       .  S
C5137      C5142   1.382       .  A
C5137      C5138   1.402       .  A
C5137      O5143   1.317       .  A
C5138      C5139   1.401       .  A
C5138      H5149   1.082       .  S
C5139      C5148   1.361       .  A
C5139      C5140   1.382       .  A
C5140      C5141   1.394       .  A
C5140      O5146   1.310       .  A
C5141      C5142   1.393       .  A
C5141      H5150   1.083       .  S
C5142      C5145   1.351       .  A
O5143      C5144   1.328       .  A
C5144      C5145   1.385       .  A
C5145      H5151   1.083       .  S
O5146      C5147   1.325       .  A
C5147      C5148   1.389       .  A
C5148      H5152   1.083       .  S
C5153      C5158   1.382       .  A
C5153      C5154   1.397       .  A
C5153      O5159   1.312       .  A
C5154      C5155   1.396       .  A
C5154      H5165   1.083       .  S
C5155      C5164   1.354       .  A
C5155      C5156   1.382       .  A
C5156      C5157   1.403       .  A
C5156      O5162   1.318       .  A
C5157      C5158   1.402       .  A
C5157      H5166   1.082       .  S
C5158      C5161   1.362       .  A
O5159      C5160   1.326       .  A
C5160      C5161   1.389       .  A
C5161      H5167   1.082       .  S
O5162      C5163   1.329       .  A
C5163      C5164   1.387       .  A
C5164      H5168   1.083       .  S
C5169      C5174   1.378       .  A
C5169      C5170   1.411       .  A
C5169      O5175   1.317       .  A
C5170      C5171   1.405   1_545  A
C5170      H5181   1.082   1_545  S
C5171      C5180   1.377       .  A
C5171      C5172   1.378       .  A
C5172      C5173   1.409   1_565  A
C5172      O5178   1.315       .  A
C5173      C5174   1.403       .  A
C5173      H5182   1.082       .  S
C5174      C5177   1.375       .  A
O5175      C5176   1.335       .  A
C5176      C5177   1.392       .  A
C5177      H5183   1.082       .  S
O5178      C5179   1.334       .  A
C5179      C5180   1.393       .  A
C5180      H5184   1.082       .  S
C5185      C5190   1.382       .  A
C5185      C5186   1.404   1_565  A
C5185      O5191   1.321       .  A
C5186      C5187   1.404       .  A
C5186      H5197   1.082       .  S
C5187      C5196   1.364       .  A
C5187      C5188   1.382   1_545  A
C5188      C5189   1.396       .  A
C5188      O5194   1.313   1_565  A
C5189      C5190   1.396       .  A
C5189      H5198   1.083       .  S
C5190      C5193   1.352       .  A
O5191      C5192   1.330       .  A
C5192      C5193   1.387       .  A
C5193      H5199   1.083       .  S
O5194      C5195   1.326       .  A
C5195      C5196   1.391       .  A
C5196      H5200   1.082       .  S
C5201      C5206   1.382       .  A
C5201      C5202   1.402       .  A
C5201      O5207   1.317       .  A
C5202      C5203   1.401       .  A
C5202      H5213   1.082       .  S
C5203      C5212   1.361       .  A
C5203      C5204   1.382       .  A
C5204      C5205   1.397       .  A
C5204      O5210   1.313       .  A
C5205      C5206   1.396       .  A
C5205      H5214   1.083       .  S
C5206      C5209   1.355       .  A
O5207      C5208   1.329       .  A
C5208      C5209   1.386       .  A
C5209      H5215   1.083       .  S
O5210      C5211   1.326       .  A
C5211      C5212   1.389       .  A
C5212      H5216   1.083       .  S
C5217      C5222   1.378       .  A
C5217      C5218   1.409       .  A
C5217      O5223   1.315       .  A
C5218      C5219   1.404       .  A
C5218      H5229   1.082       .  S
C5219      C5228   1.376       .  A
C5219      C5220   1.378       .  A
C5220      C5221   1.410       .  A
C5220      O5226   1.315       .  A
C5221      C5222   1.404       .  A
C5221      H5230   1.082       .  S
C5222      C5225   1.376       .  A
O5223      C5224   1.333       .  A
C5224      C5225   1.393       .  A
C5225      H5231   1.082       .  S
O5226      C5227   1.335       .  A
C5227      C5228   1.392       .  A
C5228      H5232   1.082       .  S
