geometry optimzed in LAMMPS
_audit_creation_date              2020-11-30 
_audit_creation_method            'lammps2cif' 
_symmetry_space_group_name_H-M    'P1' 
_symmetry_Int_Tables_number       1 
_symmetry_cell_setting            triclinic 
loop_ 
_symmetry_equiv_pos_as_xyz 
  x,y,z 
_cell_length_a                    26.733774368902147 
_cell_length_b                    43.42420701103912 
_cell_length_c                    52.38952243636282 
_cell_angle_alpha                 89.8332840922532 
_cell_angle_beta                  105.29377376271003 
_cell_angle_gamma                 89.91055627950676 
loop_ 
_atom_site_label 
_atom_site_type_symbol 
_atom_site_fract_x 
_atom_site_fract_y 
_atom_site_fract_z 
_atom_site_charge 
N1          N  0.58132692  0.70666671  0.74287637    -0.27220
N2          N  0.56689368  0.73142312  0.72800759    -0.35080
C3          C  0.59168356  0.75611096  0.74092562     0.01120
C4          C  0.62217071  0.74620328  0.76519451     0.07150
C5          C  0.61459613  0.71485188  0.76578592    -0.05950
H6          H  0.58639828  0.77955669  0.73364838     0.07810
H7          H  0.63222069  0.69906251  0.78163862     0.09010
Cu8        Cu  0.51068419  0.72971190  0.69209336     0.44170
Cu9        Cu  0.55714215  0.66263892  0.73136300     0.41990
Cu10       Cu  0.47761978  0.65148207  0.66581679     0.43880
N11         N  0.45180126  0.71960413  0.65844806    -0.34600
N12         N  0.44140602  0.69158034  0.64861846    -0.28860
C13         C  0.40209872  0.69321824  0.62655540    -0.04960
C14         C  0.38655828  0.72361839  0.62237266     0.07260
C15         C  0.41875359  0.73971814  0.64302822     0.01050
H16         H  0.38560087  0.67358929  0.61461917     0.08700
H17         H  0.41896496  0.76431502  0.64630073     0.07780
N18         N  0.50968276  0.61518854  0.69058104    -0.36050
N19         N  0.53651218  0.61978116  0.71531688    -0.28230
C20         C  0.54763356  0.59255186  0.72764379    -0.03470
C21         C  0.52747604  0.56964428  0.70973161     0.05140
C22         C  0.50380403  0.58464760  0.68632036     0.03230
H23         H  0.56864994  0.58967284  0.74820385     0.08340
H24         H  0.48185966  0.57428346  0.66804140     0.07170
N25         N  0.86318882  0.85303774  0.86415819    -0.27220
N26         N  0.84340598  0.84858975  0.83848679    -0.35080
C27         C  0.87770850  0.85793150  0.82546893     0.01120
C28         C  0.92079617  0.86913664  0.84370619     0.07150
C29         C  0.91029347  0.86601310  0.86802988    -0.05950
H30         H  0.87213075  0.85595550  0.80431173     0.07810
H31         H  0.93618432  0.87101171  0.88721238     0.09010
Cu32       Cu  0.77376546  0.82709449  0.82147939     0.44170
Cu33       Cu  0.83030839  0.83622739  0.89314725     0.41990
Cu34       Cu  0.72627964  0.78283075  0.86731270     0.43880
N35         N  0.71246738  0.79693911  0.80964808    -0.34600
N36         N  0.69730814  0.77926889  0.82675249    -0.28860
C37         C  0.66209395  0.75907486  0.81346389    -0.04960
C38         C  0.65406632  0.76468806  0.78673494     0.07260
C39         C  0.68641202  0.78892139  0.78490866     0.01050
H40         H  0.64424496  0.74132113  0.82259076     0.08700
H41         H  0.69285729  0.79870149  0.76702144     0.07780
N42         N  0.75826182  0.79003368  0.90728623    -0.36050
N43         N  0.79623636  0.80963879  0.91696624    -0.28230
C44         C  0.81018400  0.80716625  0.94352816    -0.03470
C45         C  0.77893271  0.78524055  0.95087550     0.05140
C46         C  0.74680624  0.77473762  0.92733023     0.03230
H47         H  0.84177693  0.81968223  0.95647847     0.08340
H48         H  0.71884910  0.75627914  0.92483322     0.07170
N49         N  0.56854729  0.40283405  0.79802238    -0.27220
N50         N  0.54973119  0.43069991  0.79954189    -0.35080
C51         C  0.53853953  0.43383226  0.82291192     0.01120
C52         C  0.55011290  0.40643456  0.83663331     0.07150
C53         C  0.56881507  0.38711185  0.82027784    -0.05950
H54         H  0.52373711  0.45467052  0.82955831     0.07810
H55         H  0.58417915  0.36408826  0.82482734     0.09010
Cu56       Cu  0.54211430  0.46342128  0.77011837     0.44170
Cu57       Cu  0.59974435  0.39081609  0.76716901     0.41990
Cu58       Cu  0.57842794  0.44498971  0.71047886     0.43880
N59         N  0.53589695  0.49381536  0.73907732    -0.34600
N60         N  0.54642216  0.48696236  0.71647562    -0.28860
C61         C  0.54162784  0.51263876  0.70149509    -0.04960
C62         C  0.52814128  0.53665436  0.71566964     0.07260
C63         C  0.52500036  0.52393391  0.73933429     0.01050
H64         H  0.55164892  0.51424162  0.68282653     0.08700
H65         H  0.51772831  0.53596582  0.75605860     0.07780
N66         N  0.62907380  0.40788372  0.71665025    -0.36050
N67         N  0.63823412  0.38950684  0.73760426    -0.28230
C68         C  0.68014502  0.37217411  0.73816390    -0.03470
C69         C  0.69777690  0.37973097  0.71646047     0.05140
C70         C  0.66439566  0.40221862  0.70309526     0.03230
H71         H  0.69775962  0.35618971  0.75386205     0.08340
H72         H  0.66800652  0.41525291  0.68603379     0.07170
N73         N  0.54615848  0.40817389  0.90534508    -0.27220
N74         N  0.53067006  0.37962124  0.89915067    -0.35080
C75         C  0.53147636  0.37403209  0.87398139     0.01120
C76         C  0.54728677  0.40061169  0.86382106     0.07150
C77         C  0.55607688  0.42178000  0.88414918    -0.05950
H78         H  0.51892137  0.35280510  0.86348699     0.07810
H79         H  0.56844509  0.44541566  0.88353454     0.09010
Cu80       Cu  0.50257855  0.35171903  0.92431259     0.44170
Cu81       Cu  0.55261149  0.42748822  0.94224550     0.41990
Cu82       Cu  0.50738215  0.38247220  0.98997440     0.43880
N83         N  0.46798512  0.33100049  0.95096506    -0.34600
N84         N  0.47044603  0.34145471  0.97496641    -0.28860
C85         C  0.44336923  0.32235928  0.98663402    -0.04960
C86         C  0.42226811  0.29913717  0.96894780     0.07260
C87         C  0.43873964  0.30544305  0.94658953     0.01050
H88         H  0.43831391  0.32559544  0.00627410     0.08700
H89         H  0.43039348  0.29229963  0.92844189     0.07780
N90         N  0.54220264  0.42567252  0.99821827    -0.36050
N91         N  0.55843757  0.44201617  0.98062470    -0.28230
C92         C  0.57848044  0.46873963  0.99168667    -0.03470
C93         C  0.57465347  0.46938905  0.01749702     0.05140
C94         C  0.55145911  0.44170068  0.02097596     0.03230
H95         H  0.59451992  0.48641697  0.98160725     0.08220
H96         H  0.54185037  0.43380886  0.03870431     0.07170
N97         N  0.61987628  0.55564004  0.14913063    -0.27220
N98         N  0.63562808  0.58414481  0.15534555    -0.35080
C99         C  0.63487524  0.58974776  0.18052666     0.01120
C100        C  0.61881189  0.56322541  0.19067396     0.07150
C101        C  0.60983268  0.54208042  0.17031886    -0.05950
H102        H  0.64767904  0.61092639  0.19104716     0.07810
H103        H  0.59730431  0.51847621  0.17092102     0.09010
Cu104      Cu  0.66406765  0.61188616  0.13016985     0.44170
Cu105      Cu  0.61340745  0.53630664  0.11222079     0.41990
Cu106      Cu  0.65990855  0.58090568  0.06463611     0.43880
N107        N  0.69924914  0.63237083  0.10361636    -0.34600
N108        N  0.69721582  0.62178371  0.07970489    -0.28860
C109        C  0.72480131  0.64069646  0.06816269    -0.04960
C110        C  0.74575324  0.66397382  0.08582939     0.07260
C111        C  0.72863610  0.65786270  0.10804120     0.01050
H112        H  0.73023814  0.63730438  0.04861688     0.08700
H113        H  0.73664896  0.67108983  0.12613746     0.07780
N114        N  0.62437764  0.53791984  0.05632778    -0.36050
N115        N  0.60773668  0.52171012  0.07386135    -0.28230
C116        C  0.58744712  0.49505019  0.06276591    -0.03470
C117        C  0.59151264  0.49431523  0.03699672     0.05140
C118        C  0.61510310  0.52188364  0.03357587     0.03230
H119        H  0.57109729  0.47746835  0.07279713     0.08340
H120        H  0.62504948  0.52966679  0.01590436     0.07170
N121        N  0.58681379  0.25691605  0.31093897    -0.27220
N122        N  0.60103871  0.23217117  0.32584981    -0.35080
C123        C  0.57639621  0.20747514  0.31290356     0.01120
C124        C  0.54622805  0.21733844  0.28856238     0.07150
C125        C  0.55381808  0.24869468  0.28794851    -0.05950
H126        H  0.58147124  0.18405430  0.32025188     0.07810
H127        H  0.53626797  0.26446676  0.27206775     0.09010
Cu128      Cu  0.65658364  0.23380247  0.36194374     0.44170
Cu129      Cu  0.61071424  0.30095133  0.32265990     0.41990
Cu130      Cu  0.68900677  0.31182200  0.38865459     0.43880
N131        N  0.71464474  0.24362581  0.39594687    -0.34600
N132        N  0.72469062  0.27157601  0.40599704    -0.28860
C133        C  0.76343990  0.26976835  0.42828789    -0.04960
C134        C  0.77900091  0.23935491  0.43235529     0.07260
C135        C  0.74741861  0.22340844  0.41141155     0.01050
H136        H  0.77969820  0.28929978  0.44042131     0.08700
H137        H  0.74750662  0.19886012  0.40793486     0.07780
N138        N  0.65748189  0.34824099  0.36380692    -0.36050
N139        N  0.63112009  0.34373120  0.33897423    -0.28230
C140        C  0.62017849  0.37100256  0.32669712    -0.03470
C141        C  0.63995279  0.39387196  0.34471887     0.05140
C142        C  0.66321547  0.37878450  0.36816111     0.03230
H143        H  0.59949541  0.37393838  0.30609344     0.08340
H144        H  0.68474178  0.38910349  0.38654815     0.07170
N145        N  0.30593161  0.10927585  0.19030245    -0.27220
N146        N  0.32517811  0.11451723  0.21589643    -0.35080
C147        C  0.29038366  0.10591747  0.22887251     0.01120
C148        C  0.24749583  0.09440012  0.21070068     0.07150
C149        C  0.25864152  0.09655707  0.18646005    -0.05950
H150        H  0.29553621  0.10857454  0.24994482     0.07810
H151        H  0.23310471  0.09103047  0.16730834     0.09010
Cu152      Cu  0.39473962  0.13609467  0.23282537     0.44170
Cu153      Cu  0.33961652  0.12483098  0.16118370     0.41990
Cu154      Cu  0.44126579  0.17996282  0.18677778     0.43880
N155        N  0.45591949  0.16632758  0.24447263    -0.34600
N156        N  0.47087218  0.18387897  0.22723495    -0.28860
C157        C  0.50606005  0.20419553  0.24035206    -0.04960
C158        C  0.51424907  0.19877732  0.26711826     0.07260
C159        C  0.48205783  0.17453766  0.26913738     0.01050
H160        H  0.52374808  0.22189814  0.23108804     0.08700
H161        H  0.47578040  0.16487767  0.28710283     0.07780
N162        N  0.40844350  0.17284197  0.14690849    -0.36050
N163        N  0.37224274  0.15214016  0.13721807    -0.28230
C164        C  0.35741699  0.15495927  0.11066056    -0.03470
C165        C  0.38538030  0.17878216  0.10354560     0.05140
C166        C  0.41743425  0.18946453  0.12694825     0.03230
H167        H  0.32651079  0.14195833  0.09769911     0.08340
H168        H  0.44388920  0.20870844  0.12938313     0.07170
N169        N  0.59790436  0.56093271  0.25658416    -0.27220
N170        N  0.61669450  0.53306924  0.25501064    -0.35080
C171        C  0.62772279  0.52996613  0.23159436     0.01120
C172        C  0.61608629  0.55737729  0.21789114     0.07150
C173        C  0.59750285  0.57667808  0.23431475    -0.05950
H174        H  0.64249153  0.50914078  0.22490869     0.07810
H175        H  0.58215420  0.59971178  0.22980949     0.09010
Cu176      Cu  0.62459008  0.50030732  0.28445561     0.44170
Cu177      Cu  0.56700514  0.57292009  0.28758138     0.41990
Cu178      Cu  0.58849697  0.51852016  0.34418455     0.43880
N179        N  0.63110513  0.46981898  0.31548987    -0.34600
N180        N  0.62060379  0.47658088  0.33811564    -0.28860
C181        C  0.62557283  0.45086449  0.35306696    -0.04960
C182        C  0.63915772  0.42690865  0.33885353     0.07260
C183        C  0.64217136  0.43972353  0.31519442     0.01050
H184        H  0.61560784  0.44918677  0.37174578     0.08700
H185        H  0.64945364  0.42775970  0.29844110     0.07780
N186        N  0.53799293  0.55571449  0.33819068    -0.36050
N187        N  0.52880328  0.57418965  0.31729623    -0.28230
C188        C  0.48695312  0.59153651  0.31684817    -0.03470
C189        C  0.46936395  0.58387704  0.33855015     0.05140
C190        C  0.50274439  0.56132362  0.35180706     0.03230
H191        H  0.46927633  0.60755815  0.30119225     0.08340
H192        H  0.49912692  0.54817889  0.36881031     0.07170
C193        C  0.80330551  0.72873653  0.05373264     0.03200
C194        C  0.77427038  0.70267801  0.05689329    -0.12950
C195        C  0.77898902  0.68998994  0.08214481     0.00700
C196        C  0.81486368  0.70281134  0.10412909    -0.11470
C197        C  0.84397740  0.72880191  0.10120097     0.03190
C198        C  0.83660410  0.74221627  0.07613575    -0.10900
H199        H  0.74744804  0.69265929  0.03975303     0.08790
H200        H  0.81995516  0.69270571  0.12358463     0.06320
H201        H  0.85805684  0.76271746  0.07386006     0.06160
C202        C  0.36757773  0.23351149  0.00115672     0.03200
C203        C  0.39625151  0.25961400  0.99791667    -0.12950
C204        C  0.38939103  0.27304875  0.97279184     0.00700
C205        C  0.35185425  0.26085125  0.95111179    -0.11470
C206        C  0.32223935  0.23515653  0.95433045     0.03190
C207        C  0.33076304  0.22145312  0.97934921    -0.10900
H208        H  0.42492564  0.26878417  0.01480103     0.08790
H209        H  0.34575426  0.27127865  0.93171353     0.06320
H210        H  0.30777688  0.20180874  0.98211658     0.06160
N211        N  0.08122526  0.75730590  0.24342631    -0.27220
N212        N  0.06573215  0.73270592  0.22868652    -0.35080
C213        C  0.09000990  0.70771700  0.24155148     0.01120
C214        C  0.12127719  0.71726901  0.26566584     0.07150
C215        C  0.11469118  0.74872409  0.26622456    -0.05950
H216        H  0.08379378  0.68432430  0.23437230     0.07810
H217        H  0.13307548  0.76430088  0.28198638     0.09010
Cu218      Cu  0.00865417  0.73503409  0.19312578     0.44170
Cu219      Cu  0.05792579  0.80159048  0.23185542     0.41990
Cu220      Cu  0.97539159  0.81335201  0.16679104     0.43880
N221        N  0.94883548  0.74545040  0.15990308    -0.34600
N222        N  0.93815848  0.77351363  0.15002047    -0.28860
C223        C  0.89861733  0.77196660  0.12805129    -0.04960
C224        C  0.88323369  0.74156873  0.12400619     0.07260
C225        C  0.91580564  0.72540760  0.14462966     0.01050
H226        H  0.88227111  0.79160325  0.11593211     0.08700
H227        H  0.91664128  0.70075987  0.14781726     0.07780
N228        N  0.00944160  0.84933521  0.19113905    -0.36050
N229        N  0.03740599  0.84456866  0.21568094    -0.28230
C230        C  0.04946914  0.87173287  0.22781646    -0.03470
C231        C  0.02875786  0.89476563  0.20997177     0.05140
C232        C  0.00376106  0.87991254  0.18680812     0.03230
H233        H  0.07133252  0.87448204  0.24823457     0.08340
H234        H  0.98093903  0.89041497  0.16871044     0.07170
N235        N  0.36311636  0.60971396  0.36453567    -0.27220
N236        N  0.34347532  0.61467326  0.33888879    -0.35080
C237        C  0.37805667  0.60583415  0.32587132     0.01120
C238        C  0.42120835  0.59443546  0.34406316     0.07150
C239        C  0.41044832  0.59692198  0.36836881    -0.05950
H240        H  0.37254960  0.60821142  0.30473627     0.07810
H241        H  0.43625624  0.59155180  0.38753035     0.09010
Cu242      Cu  0.27352631  0.63604280  0.32180457     0.44170
Cu243      Cu  0.32982223  0.62564660  0.39366949     0.41990
Cu244      Cu  0.22619762  0.67964087  0.36754839     0.43880
N245        N  0.21163477  0.66596310  0.30992846    -0.34600
N246        N  0.19631553  0.68336792  0.32708019    -0.28860
C247        C  0.16089164  0.70365344  0.31387111    -0.04960
C248        C  0.15290325  0.69837640  0.28712967     0.07260
C249        C  0.18548703  0.67424619  0.28521654     0.01050
H250        H  0.14308164  0.72134283  0.32305443     0.08700
H251        H  0.19216110  0.66480864  0.26729955     0.07780
N252        N  0.25985270  0.67333444  0.40748119    -0.36050
N253        N  0.29694407  0.65310083  0.41740502    -0.28230
C254        C  0.31205992  0.65639773  0.44390381    -0.03470
C255        C  0.28342304  0.68009701  0.45073210     0.05140
C256        C  0.25053066  0.69010722  0.42721481     0.03230
H257        H  0.34344883  0.64373868  0.45700906     0.08340
H258        H  0.22309472  0.70893909  0.42453093     0.07170
N259        N  0.06950236  0.06139989  0.29762372    -0.27220
N260        N  0.05076869  0.03356386  0.29927502    -0.35080
C261        C  0.03939585  0.03047451  0.32261783     0.01120
C262        C  0.05076844  0.05786679  0.33618799     0.07150
C263        C  0.06954620  0.07713973  0.31976684    -0.05950
H264        H  0.02459315  0.00966773  0.32934813     0.07810
H265        H  0.08478090  0.10014818  0.32419809     0.09010
Cu266      Cu  0.04342930  0.00082218  0.27005580     0.44170
Cu267      Cu  0.10079070  0.07338788  0.26674187     0.41990
Cu268      Cu  0.07955955  0.01932015  0.21031284     0.43880
N269        N  0.03735991  0.97047411  0.23915001    -0.34600
N270        N  0.04776078  0.97737548  0.21650036    -0.28860
C271        C  0.04295999  0.95175363  0.20159474    -0.04960
C272        C  0.02959512  0.92772274  0.21586674     0.07260
C273        C  0.02655141  0.94036976  0.23951503     0.01050
H274        H  0.05283643  0.95019633  0.18289274     0.08700
H275        H  0.01931938  0.92830235  0.25628056     0.07780
N276        N  0.13024702  0.05625315  0.21633245    -0.36050
N277        N  0.13935739  0.07461878  0.23718662    -0.28230
C278        C  0.18138852  0.09175172  0.23772377    -0.03470
C279        C  0.19918986  0.08404862  0.21612439     0.05140
C280        C  0.16574095  0.06170759  0.20283204     0.03230
H281        H  0.19903151  0.10764178  0.25337572     0.08340
H282        H  0.16945077  0.04858819  0.18589085     0.07170
N283        N  0.04635030  0.05623589  0.40485307    -0.27220
N284        N  0.03156144  0.08496322  0.39859265    -0.35080
C285        C  0.03252183  0.09049884  0.37340710     0.01120
C286        C  0.04769209  0.06372237  0.36331177     0.07150
C287        C  0.05595241  0.04248914  0.38369433    -0.05950
H288        H  0.02064143  0.11188408  0.36288059     0.07810
H289        H  0.06787938  0.01873412  0.38316514     0.09010
Cu290      Cu  0.00455619  0.11339474  0.42376258     0.44170
Cu291      Cu  0.05271781  0.03685006  0.44181943     0.41990
Cu292      Cu  0.01033582  0.08262842  0.48970710     0.43880
N293        N  0.97142407  0.13462900  0.45074335    -0.34600
N294        N  0.97439955  0.12410800  0.47483539    -0.28860
C295        C  0.94767706  0.14322007  0.48663746    -0.04960
C296        C  0.92626842  0.16655193  0.46898176     0.07260
C297        C  0.94212896  0.16028107  0.44645259     0.01050
H298        H  0.94251068  0.13971772  0.50624279     0.08700
H299        H  0.93280357  0.17328737  0.42814747     0.07780
N300        N  0.04356852  0.03892029  0.49796328    -0.36050
N301        N  0.05881987  0.02226963  0.48028249    -0.28230
C302        C  0.07811149  0.99528368  0.49134300    -0.03470
C303        C  0.07479823  0.99478699  0.51724648     0.05140
C304        C  0.05269073  0.02283632  0.52077874     0.03230
H305        H  0.09331772  0.97733522  0.48120627     0.08340
H306        H  0.04377621  0.03094899  0.53858816     0.07170
N307        N  0.12042652  0.90812839  0.64922937    -0.27220
N308        N  0.13625021  0.87958658  0.65558258    -0.35080
C309        C  0.13557333  0.87399570  0.68080440     0.01120
C310        C  0.11949554  0.90056015  0.69082551     0.07150
C311        C  0.11041927  0.92171439  0.67035961    -0.05950
H312        H  0.14833774  0.85276916  0.69141720     0.07810
H313        H  0.09776355  0.94533019  0.67083134     0.09010
Cu314      Cu  0.16434834  0.85165238  0.63047028     0.44170
Cu315      Cu  0.11354314  0.92752133  0.61220627     0.41990
Cu316      Cu  0.15792546  0.88243007  0.56446292     0.43880
N317        N  0.19829180  0.83088013  0.60358997    -0.34600
N318        N  0.19518423  0.84136854  0.57947655    -0.28860
C319        C  0.22209148  0.82233499  0.56769278    -0.04960
C320        C  0.24376207  0.79909742  0.58540175     0.07260
C321        C  0.22780454  0.80533589  0.60791042     0.01050
H322        H  0.22677536  0.82567959  0.54797824     0.08700
H323        H  0.23681350  0.79220767  0.62614987     0.07780
N324        N  0.12327366  0.92575066  0.55613826    -0.36050
N325        N  0.10740218  0.94218337  0.57374605    -0.28230
C326        C  0.08763145  0.96906347  0.56264285    -0.03470
C327        C  0.09124475  0.96969646  0.53678854     0.05140
C328        C  0.11401947  0.94184612  0.53333045     0.03230
H329        H  0.07197068  0.98686571  0.57272682     0.08340
H330        H  0.12347414  0.93392032  0.51560266     0.07170
N331        N  0.09811590  0.90285024  0.75661652    -0.27220
N332        N  0.11658299  0.93074155  0.75489359    -0.35080
C333        C  0.12778219  0.93384251  0.73150673     0.01120
C334        C  0.11658845  0.90640263  0.71798566     0.07150
C335        C  0.09808528  0.88708879  0.73448250    -0.05950
H336        H  0.14234141  0.95468861  0.72470963     0.07810
H337        H  0.08301324  0.86403666  0.73010509     0.09010
Cu338      Cu  0.12382884  0.96351686  0.78411463     0.44170
Cu339      Cu  0.06707688  0.89084243  0.78757753     0.41990
Cu340      Cu  0.08793394  0.94500120  0.84396626     0.43880
N341        N  0.13014625  0.99384549  0.81509092    -0.34600
N342        N  0.11983983  0.98693879  0.83776418    -0.28860
C343        C  0.12493096  0.01253363  0.85272626    -0.04960
C344        C  0.13837349  0.03656553  0.83847187     0.07260
C345        C  0.14117742  0.02392761  0.81477350     0.01050
H346        H  0.11522838  0.01408122  0.87147255     0.08700
H347        H  0.14843263  0.03599238  0.79801223     0.07780
N348        N  0.03749086  0.90791443  0.83798379    -0.36050
N349        N  0.02853317  0.88954256  0.81713526    -0.28230
C350        C  0.98669857  0.87224477  0.81661996    -0.03470
C351        C  0.96888182  0.87981461  0.83823737     0.05140
C352        C  0.00210233  0.90227279  0.85151730     0.03230
H353        H  0.96923621  0.85628435  0.80099270     0.08340
H354        H  0.99831556  0.91531310  0.86848544     0.07170
N355        N  0.08721645  0.20709957  0.81129250    -0.27220
N356        N  0.10170435  0.23157527  0.82634304    -0.35080
C357        C  0.07737089  0.25657085  0.81353329     0.01120
C358        C  0.04713382  0.24718051  0.78913136     0.07150
C359        C  0.05436015  0.21579465  0.78833864    -0.05950
H360        H  0.08281726  0.27987891  0.82098337     0.07810
H361        H  0.03673950  0.20033653  0.77233751     0.09010
Cu362      Cu  0.15752659  0.22917634  0.86231091     0.44170
Cu363      Cu  0.11085716  0.16282015  0.82276336     0.41990
Cu364      Cu  0.19076013  0.15080573  0.88847225     0.43880
N365        N  0.21653930  0.21880864  0.89585933    -0.34600
N366        N  0.22716071  0.19072148  0.90570141    -0.28860
C367        C  0.26657122  0.19225380  0.92773022    -0.04960
C368        C  0.28191607  0.22265706  0.93184276     0.07260
C369        C  0.24947944  0.23884685  0.91120255     0.01050
H370        H  0.28320538  0.17257107  0.93971186     0.08700
H371        H  0.24897609  0.26346931  0.90790699     0.07780
N372        N  0.15804469  0.11488147  0.86361114    -0.36050
N373        N  0.13115671  0.11977838  0.83888940    -0.28230
C374        C  0.11962024  0.09268182  0.82656083    -0.03470
C375        C  0.13953528  0.06953615  0.84444099     0.05140
C376        C  0.16351068  0.08426962  0.86784528     0.03230
H377        H  0.09846747  0.09005215  0.80601488     0.08340
H378        H  0.18537399  0.07365818  0.88610496     0.07170
N379        N  0.80359051  0.35339853  0.69043176    -0.27220
N380        N  0.82347578  0.34871554  0.71609614    -0.35080
C381        C  0.78907201  0.35776221  0.72914906     0.01120
C382        C  0.74581327  0.36902028  0.71094265     0.07150
C383        C  0.75630344  0.36622647  0.68660438    -0.05950
H384        H  0.79480009  0.35566735  0.75031999     0.07810
H385        H  0.73038436  0.37146448  0.66744239     0.09010
Cu386      Cu  0.89372695  0.32766387  0.73311709     0.44170
Cu387      Cu  0.83683369  0.33741338  0.66133871     0.41990
Cu388      Cu  0.94463206  0.28620362  0.68726449     0.43880
N389        N  0.95651734  0.29839299  0.74495155    -0.34600
N390        N  0.97320378  0.28177209  0.72777720    -0.28860
C391        C  0.00892086  0.26162430  0.74096865    -0.04960
C392        C  0.01566642  0.26620392  0.76772330     0.07260
C393        C  0.98205549  0.28975856  0.76966048     0.01050
H394        H  0.02776000  0.24448428  0.73175205     0.08700
H395        H  0.97428008  0.29852614  0.78755081     0.07780
N396        N  0.91108600  0.29266985  0.64732160    -0.36050
N397        N  0.87188798  0.31157105  0.63752690    -0.28230
C398        C  0.85713399  0.30845639  0.61102109    -0.03470
C399        C  0.88889533  0.28665002  0.60389132     0.05140
C400        C  0.92235801  0.27708653  0.62745222     0.03230
H401        H  0.82402873  0.31992371  0.59810492     0.08340
H402        H  0.95158635  0.25926126  0.63006340     0.07170
C403        C  0.29992911  0.73416240  0.55314788     0.03200
C404        C  0.33773112  0.72254820  0.57489562    -0.12950
C405        C  0.34594506  0.73607518  0.59989228     0.00700
C406        C  0.31546786  0.76136148  0.60314180    -0.11470
C407        C  0.27719292  0.77326980  0.58152799     0.03190
C408        C  0.27029575  0.75987275  0.55644518    -0.10900
H409        H  0.36161996  0.70331758  0.57212989     0.08790
H410        H  0.32146825  0.77168454  0.62251808     0.06320
H411        H  0.24094185  0.76880419  0.53964133     0.06160
C412        C  0.86482085  0.22865456  0.50179707     0.03200
C413        C  0.82599662  0.23951356  0.48006016    -0.12950
C414        C  0.81959156  0.22689579  0.45483541     0.00700
C415        C  0.85218223  0.20282269  0.45131614    -0.11470
C416        C  0.89169116  0.19179066  0.47278427     0.03190
C417        C  0.89815900  0.20507793  0.49786935    -0.10900
H418        H  0.79998318  0.25757349  0.48288598     0.08790
H419        H  0.84697791  0.19285877  0.43185250     0.06320
H420        H  0.92966558  0.19739904  0.51423780     0.06160
C421        C  0.88352713  0.27263162  0.57760253    -0.06050
C422        C  0.88482496  0.24038565  0.57599989    -0.17180
C423        C  0.87741579  0.22538409  0.55170487     0.11150
C424        C  0.87099520  0.24294863  0.52824933    -0.05980
C425        C  0.87011574  0.27528640  0.52995359    -0.17210
C426        C  0.87599629  0.29023980  0.55419008     0.11180
S427        S  0.87307923  0.18393707  0.55207083    -0.32180
S428        S  0.87539957  0.33175791  0.55386492    -0.32180
H429        H  0.91312930  0.33507054  0.57811307     0.29190
H430        H  0.83491484  0.18180902  0.52784137     0.29180
H431        H  0.88946863  0.22663170  0.59377686     0.19770
H432        H  0.86567735  0.28914394  0.51224983     0.19780
C433        C  0.28966409  0.69396377  0.47704201    -0.06050
C434        C  0.28213233  0.67547331  0.49767297    -0.17180
C435        C  0.28301048  0.68815828  0.52233742     0.11150
C436        C  0.29312633  0.71996205  0.52679055    -0.05980
C437        C  0.30090969  0.73835557  0.50614157    -0.17210
C438        C  0.29980726  0.72569965  0.48149396     0.11180
S439        S  0.26890251  0.66281095  0.54688280    -0.32180
S440        S  0.31415930  0.75098539  0.45699723    -0.32180
H441        H  0.33991970  0.72863234  0.44575463     0.29190
H442        H  0.24563690  0.68540328  0.55918597     0.29180
H443        H  0.27373149  0.65118938  0.49425400     0.19770
H444        H  0.30967368  0.76260275  0.50953627     0.19780
C445        C  0.37449676  0.21923545  0.02750790    -0.06050
C446        C  0.36228513  0.23675151  0.04748262    -0.17180
C447        C  0.36356110  0.22372456  0.07207361     0.11150
C448        C  0.37843579  0.19260585  0.07713733    -0.05980
C449        C  0.39033561  0.17496943  0.05715338    -0.17210
C450        C  0.38912951  0.18801931  0.03251987     0.11180
S451        S  0.34372674  0.24764565  0.09576111    -0.32180
S452        S  0.40838577  0.16399893  0.00869528    -0.32180
H453        H  0.42879097  0.18793177  0.99637695     0.29190
H454        H  0.32121778  0.22374935  0.10709351     0.29180
H455        H  0.35007472  0.26050868  0.04358788     0.19770
H456        H  0.40230266  0.15117682  0.06107020     0.19780
C457        C  0.78412593  0.77226001  0.97761097    -0.06050
C458        C  0.83399905  0.76541486  0.99343112    -0.17180
C459        C  0.84135683  0.75020502  0.01772178     0.11150
C460        C  0.79790325  0.74256161  0.02715887    -0.05980
C461        C  0.74802735  0.74971007  0.01142312    -0.17210
C462        C  0.74068810  0.76454223  0.98694839     0.11180
S463        S  0.90701648  0.73968863  0.03480639    -0.32180
S464        S  0.67506036  0.77422973  0.96929317    -0.32180
H465        H  0.68790100  0.80201468  0.95871333     0.29190
H466        H  0.89377564  0.71210882  0.04554384     0.29180
H467        H  0.86751678  0.77068556  0.98626887     0.19770
H468        H  0.71450687  0.74447748  0.01859426     0.19780
loop_ 
_geom_bond_atom_site_label_1 
_geom_bond_atom_site_label_2 
_geom_bond_distance 
_geom_bond_site_symmetry_2 
_ccdc_geom_bond_type 
N1            N2   1.322       .  A
N1            C5   1.341       .  A
N1           Cu9   2.060       .  S
N2            C3   1.348       .  A
N2           Cu8   2.077       .  S
C3            C4   1.384       .  A
C3            H6   1.082       .  S
C4            C5   1.378       .  A
C4           C38   1.464       .  S
C5            H7   1.082       .  S
Cu8          N11   2.079       .  S
Cu9          N19   2.060       .  S
Cu10         N12   2.075       .  S
Cu10         N18   2.073       .  S
N11          N12   1.324       .  A
N11          C15   1.346       .  A
N12          C13   1.343       .  A
C13          C14   1.383       .  A
C13          H16   1.082       .  S
C14          C15   1.384       .  A
C14         C405   1.476       .  S
C15          H17   1.082       .  S
N18          N19   1.321       .  A
N18          C22   1.348       .  A
N19          C20   1.340       .  A
C20          C21   1.379       .  A
C20          H23   1.082       .  S
C21          C22   1.383       .  A
C21          C62   1.464       .  S
C22          H24   1.082       .  S
N25          N26   1.324       .  A
N25          C29   1.346       .  A
N25         Cu33   2.077       .  S
N26          C27   1.342       .  A
N26         Cu32   2.066       .  S
C27          C28   1.379       .  A
C27          H30   1.082       .  S
C28          C29   1.382       .  A
C28         C351   1.465       .  S
C29          H31   1.082       .  S
Cu32         N35   2.064       .  S
Cu33         N43   2.077       .  S
Cu34         N36   2.067       .  S
Cu34         N42   2.068       .  S
N35          N36   1.321       .  A
N35          C39   1.347       .  A
N36          C37   1.342       .  A
C37          C38   1.380       .  A
C37          H40   1.082       .  S
C38          C39   1.382       .  A
C39          H41   1.082       .  S
N42          N43   1.321       .  A
N42          C46   1.343       .  A
N43          C44   1.346       .  A
C44          C45   1.387       .  A
C44          H47   1.082       .  S
C45          C46   1.383       .  A
C45         C457   1.480       .  S
C46          H48   1.081       .  S
N49          N50   1.320       .  A
N49          C53   1.348       .  A
N49         Cu57   2.073       .  S
N50          C51   1.342       .  A
N50         Cu56   2.063       .  S
C51          C52   1.380       .  A
C51          H54   1.082       .  S
C52          C53   1.385       .  A
C52          C76   1.467       .  S
C53          H55   1.082       .  S
Cu56         N59   2.064       .  S
Cu57         N67   2.074       .  S
Cu58         N60   2.072       .  S
Cu58         N66   2.072       .  S
N59          N60   1.322       .  A
N59          C63   1.340       .  A
N60          C61   1.348       .  A
C61          C62   1.383       .  A
C61          H64   1.082       .  S
C62          C63   1.379       .  A
C63          H65   1.082       .  S
N66          N67   1.325       .  A
N66          C70   1.346       .  A
N67          C68   1.343       .  A
C68          C69   1.380       .  A
C68          H71   1.082       .  S
C69          C70   1.380       .  A
C69         C382   1.464       .  S
C70          H72   1.082       .  S
N73          N74   1.322       .  A
N73          C77   1.343       .  A
N73         Cu81   2.075       .  S
N74          C75   1.347       .  A
N74         Cu80   2.070       .  S
C75          C76   1.382       .  A
C75          H78   1.082       .  S
C76          C77   1.382       .  A
C77          H79   1.082       .  S
Cu80         N83   2.071       .  S
Cu81         N91   2.075       .  S
Cu82         N84   2.090       .  S
Cu82         N90   2.091       .  S
N83          N84   1.323       .  A
N83          C87   1.344       .  A
N84          C85   1.348       .  A
C85          C86   1.387       .  A
C85          H88   1.082   1_556  S
C86          C87   1.383       .  A
C86         C204   1.480       .  S
C87          H89   1.082       .  S
N90          N91   1.323       .  A
N90          C94   1.348   1_556  A
N91          C92   1.346       .  A
C92          C93   1.383   1_556  A
C92          H95   1.082       .  S
C93          C94   1.387       .  A
C93         C117   1.478       .  S
C94          H96   1.082       .  S
N97          N98   1.322       .  A
N97         C101   1.343       .  A
N97        Cu105   2.075       .  S
N98          C99   1.348       .  A
N98        Cu104   2.072       .  S
C99         C100   1.383       .  A
C99         H102   1.082       .  S
C100        C101   1.382       .  A
C100        C172   1.468       .  S
C101        H103   1.082       .  S
Cu104       N107   2.073       .  S
Cu105       N115   2.076       .  S
Cu106       N108   2.090       .  S
Cu106       N114   2.090       .  S
N107        N108   1.323       .  A
N107        C111   1.343       .  A
N108        C109   1.348       .  A
C109        C110   1.388       .  A
C109        H112   1.082       .  S
C110        C111   1.383       .  A
C110        C195   1.482       .  S
C111        H113   1.082       .  S
N114        N115   1.323       .  A
N114        C118   1.348       .  A
N115        C116   1.346       .  A
C116        C117   1.383       .  A
C116        H119   1.082       .  S
C117        C118   1.387       .  A
C118        H120   1.082       .  S
N121        N122   1.322       .  A
N121        C125   1.341       .  A
N121       Cu129   2.060       .  S
N122        C123   1.347       .  A
N122       Cu128   2.075       .  S
C123        C124   1.383       .  A
C123        H126   1.082       .  S
C124        C125   1.379       .  A
C124        C158   1.464       .  S
C125        H127   1.082       .  S
Cu128       N131   2.077       .  S
Cu129       N139   2.060       .  S
Cu130       N132   2.078       .  S
Cu130       N138   2.076       .  S
N131        N132   1.324       .  A
N131        C135   1.347       .  A
N132        C133   1.343       .  A
C133        C134   1.383       .  A
C133        H136   1.082       .  S
C134        C135   1.383       .  A
C134        C414   1.476       .  S
C135        H137   1.082       .  S
N138        N139   1.321       .  A
N138        C142   1.349       .  A
N139        C140   1.340       .  A
C140        C141   1.379       .  A
C140        H143   1.082       .  S
C141        C142   1.384       .  A
C141        C182   1.465       .  S
C142        H144   1.082       .  S
N145        N146   1.324       .  A
N145        C149   1.346       .  A
N145       Cu153   2.077       .  S
N146        C147   1.342       .  A
N146       Cu152   2.065       .  S
C147        C148   1.378       .  A
C147        H150   1.082       .  S
C148        C149   1.382       .  A
C148        C279   1.465       .  S
C149        H151   1.082       .  S
Cu152       N155   2.063       .  S
Cu153       N163   2.077       .  S
Cu154       N156   2.065       .  S
Cu154       N162   2.065       .  S
N155        N156   1.320       .  A
N155        C159   1.346       .  A
N156        C157   1.342       .  A
C157        C158   1.380       .  A
C157        H160   1.082       .  S
C158        C159   1.382       .  A
C159        H161   1.082       .  S
N162        N163   1.322       .  A
N162        C166   1.342       .  A
N163        C164   1.348       .  A
C164        C165   1.384       .  A
C164        H167   1.082       .  S
C165        C166   1.379       .  A
C165        C448   1.472       .  S
C166        H168   1.082       .  S
N169        N170   1.320       .  A
N169        C173   1.348       .  A
N169       Cu177   2.074       .  S
N170        C171   1.342       .  A
N170       Cu176   2.065       .  S
C171        C172   1.380       .  A
C171        H174   1.082       .  S
C172        C173   1.385       .  A
C173        H175   1.082       .  S
Cu176       N179   2.065       .  S
Cu177       N187   2.076       .  S
Cu178       N180   2.073       .  S
Cu178       N186   2.073       .  S
N179        N180   1.322       .  A
N179        C183   1.341       .  A
N180        C181   1.348       .  A
C181        C182   1.384       .  A
C181        H184   1.082       .  S
C182        C183   1.379       .  A
C183        H185   1.082       .  S
N186        N187   1.325       .  A
N186        C190   1.346       .  A
N187        C188   1.343       .  A
C188        C189   1.380       .  A
C188        H191   1.082       .  S
C189        C190   1.380       .  A
C189        C238   1.465       .  S
C190        H192   1.082       .  S
C193        C194   1.407       .  A
C193        C198   1.403       .  A
C193        C460   1.486       .  S
C194        C195   1.406       .  A
C194        H199   1.083       .  S
C195        C196   1.407       .  A
C196        C197   1.403       .  A
C196        H200   1.084       .  S
C197        C198   1.400       .  A
C197        C224   1.477       .  S
C198        H201   1.083       .  S
C202        C203   1.404   1_554  A
C202        C207   1.400   1_554  A
C202        C445   1.478       .  S
C203        C204   1.405       .  A
C203        H208   1.083   1_556  S
C204        C205   1.408       .  A
C205        C206   1.404       .  A
C205        H209   1.084       .  S
C206        C207   1.401       .  A
C206        C368   1.477       .  S
C207        H210   1.084       .  S
N211        N212   1.322       .  A
N211        C215   1.341       .  A
N211       Cu219   2.060       .  S
N212        C213   1.348       .  A
N212       Cu218   2.076       .  S
C213        C214   1.383       .  A
C213        H216   1.082       .  S
C214        C215   1.378       .  A
C214        C248   1.464       .  S
C215        H217   1.082       .  S
Cu218       N221   2.078   1_455  S
Cu219       N229   2.060       .  S
Cu220       N222   2.076       .  S
Cu220       N228   2.074   1_655  S
N221        N222   1.324       .  A
N221        C225   1.346       .  A
N222        C223   1.344       .  A
C223        C224   1.383       .  A
C223        H226   1.082       .  S
C224        C225   1.384       .  A
C225        H227   1.082       .  S
N228        N229   1.321       .  A
N228        C232   1.348       .  A
N229        C230   1.341       .  A
C230        C231   1.379       .  A
C230        H233   1.082       .  S
C231        C232   1.383       .  A
C231        C272   1.464       .  S
C232        H234   1.082   1_455  S
N235        N236   1.324       .  A
N235        C239   1.347       .  A
N235       Cu243   2.079       .  S
N236        C237   1.342       .  A
N236       Cu242   2.065       .  S
C237        C238   1.378       .  A
C237        H240   1.082       .  S
C238        C239   1.382       .  A
C239        H241   1.082       .  S
Cu242       N245   2.064       .  S
Cu243       N253   2.079       .  S
Cu244       N246   2.065       .  S
Cu244       N252   2.065       .  S
N245        N246   1.320       .  A
N245        C249   1.347       .  A
N246        C247   1.342       .  A
C247        C248   1.380       .  A
C247        H250   1.082       .  S
C248        C249   1.382       .  A
C249        H251   1.082       .  S
N252        N253   1.322       .  A
N252        C256   1.342       .  A
N253        C254   1.348       .  A
C254        C255   1.385       .  A
C254        H257   1.082       .  S
C255        C256   1.380       .  A
C255        C433   1.474       .  S
C256        H258   1.081       .  S
N259        N260   1.320       .  A
N259        C263   1.348       .  A
N259       Cu267   2.073       .  S
N260        C261   1.342       .  A
N260       Cu266   2.064       .  S
C261        C262   1.380       .  A
C261        H264   1.082       .  S
C262        C263   1.385       .  A
C262        C286   1.468       .  S
C263        H265   1.082       .  S
Cu266       N269   2.064   1_545  S
Cu267       N277   2.075       .  S
Cu268       N270   2.072   1_545  S
Cu268       N276   2.072       .  S
N269        N270   1.322       .  A
N269        C273   1.340       .  A
N270        C271   1.348       .  A
C271        C272   1.383       .  A
C271        H274   1.082       .  S
C272        C273   1.378       .  A
C273        H275   1.082       .  S
N276        N277   1.324       .  A
N276        C280   1.346       .  A
N277        C278   1.343       .  A
C278        C279   1.380       .  A
C278        H281   1.082       .  S
C279        C280   1.380       .  A
C280        H282   1.082       .  S
N283        N284   1.322       .  A
N283        C287   1.343       .  A
N283       Cu291   2.075       .  S
N284        C285   1.347       .  A
N284       Cu290   2.072       .  S
C285        C286   1.383       .  A
C285        H288   1.082       .  S
C286        C287   1.381       .  A
C287        H289   1.082       .  S
Cu290       N293   2.073   1_455  S
Cu291       N301   2.075       .  S
Cu292       N294   2.089   1_455  S
Cu292       N300   2.089       .  S
N293        N294   1.324       .  A
N293        C297   1.344       .  A
N294        C295   1.347       .  A
C295        C296   1.387       .  A
C295        H298   1.082       .  S
C296        C297   1.383       .  A
C296        C416   1.480       .  S
C297        H299   1.082       .  S
N300        N301   1.323       .  A
N300        C304   1.348       .  A
N301        C302   1.346   1_545  A
C302        C303   1.383       .  A
C302        H305   1.082       .  S
C303        C304   1.387   1_565  A
C303        C327   1.478       .  S
C304        H306   1.082       .  S
N307        N308   1.322       .  A
N307        C311   1.343       .  A
N307       Cu315   2.075       .  S
N308        C309   1.348       .  A
N308       Cu314   2.072       .  S
C309        C310   1.383       .  A
C309        H312   1.082       .  S
C310        C311   1.382       .  A
C310        C334   1.468       .  S
C311        H313   1.082       .  S
Cu314       N317   2.073       .  S
Cu315       N325   2.076       .  S
Cu316       N318   2.089       .  S
Cu316       N324   2.089       .  S
N317        N318   1.323       .  A
N317        C321   1.344       .  A
N318        C319   1.348       .  A
C319        C320   1.387       .  A
C319        H322   1.082       .  S
C320        C321   1.383       .  A
C320        C407   1.480       .  S
C321        H323   1.082       .  S
N324        N325   1.323       .  A
N324        C328   1.348       .  A
N325        C326   1.346       .  A
C326        C327   1.383       .  A
C326        H329   1.082       .  S
C327        C328   1.387       .  A
C328        H330   1.082       .  S
N331        N332   1.320       .  A
N331        C335   1.348       .  A
N331       Cu339   2.073       .  S
N332        C333   1.342       .  A
N332       Cu338   2.065       .  S
C333        C334   1.380       .  A
C333        H336   1.082       .  S
C334        C335   1.385       .  A
C335        H337   1.082       .  S
Cu338       N341   2.065       .  S
Cu339       N349   2.075       .  S
Cu340       N342   2.073       .  S
Cu340       N348   2.073       .  S
N341        N342   1.322       .  A
N341        C345   1.341   1_565  A
N342        C343   1.348   1_565  A
C343        C344   1.383       .  A
C343        H346   1.082       .  S
C344        C345   1.379       .  A
C344        C375   1.465       .  S
C345        H347   1.082       .  S
N348        N349   1.325       .  A
N348        C352   1.346       .  A
N349        C350   1.343   1_455  A
C350        C351   1.380       .  A
C350        H353   1.082       .  S
C351        C352   1.380   1_655  A
C352        H354   1.082   1_455  S
N355        N356   1.322       .  A
N355        C359   1.341       .  A
N355       Cu363   2.061       .  S
N356        C357   1.347       .  A
N356       Cu362   2.075       .  S
C357        C358   1.383       .  A
C357        H360   1.082       .  S
C358        C359   1.379       .  A
C358        C392   1.464       .  S
C359        H361   1.082       .  S
Cu362       N365   2.076       .  S
Cu363       N373   2.061       .  S
Cu364       N366   2.078       .  S
Cu364       N372   2.076       .  S
N365        N366   1.324       .  A
N365        C369   1.346       .  A
N366        C367   1.344       .  A
C367        C368   1.384       .  A
C367        H370   1.082       .  S
C368        C369   1.384       .  A
C369        H371   1.082       .  S
N372        N373   1.321       .  A
N372        C376   1.348       .  A
N373        C374   1.341       .  A
C374        C375   1.379       .  A
C374        H377   1.082       .  S
C375        C376   1.384       .  A
C376        H378   1.082       .  S
N379        N380   1.324       .  A
N379        C383   1.346       .  A
N379       Cu387   2.077       .  S
N380        C381   1.342       .  A
N380       Cu386   2.065       .  S
C381        C382   1.378       .  A
C381        H384   1.082       .  S
C382        C383   1.382       .  A
C383        H385   1.082       .  S
Cu386       N389   2.063       .  S
Cu387       N397   2.077       .  S
Cu388       N390   2.066       .  S
Cu388       N396   2.066       .  S
N389        N390   1.321       .  A
N389        C393   1.346       .  A
N390        C391   1.342   1_655  A
C391        C392   1.380       .  A
C391        H394   1.082       .  S
C392        C393   1.382   1_455  A
C393        H395   1.082       .  S
N396        N397   1.321       .  A
N396        C400   1.342       .  A
N397        C398   1.347       .  A
C398        C399   1.387       .  A
C398        H401   1.082       .  S
C399        C400   1.382       .  A
C399        C421   1.479       .  S
C400        H402   1.081       .  S
C403        C404   1.401       .  A
C403        C408   1.405       .  A
C403        C436   1.481       .  S
C404        C405   1.400       .  A
C404        H409   1.084       .  S
C405        C406   1.404       .  A
C406        C407   1.407       .  A
C406        H410   1.084       .  S
C407        C408   1.406       .  A
C408        H411   1.083       .  S
C412        C413   1.403       .  A
C412        C417   1.407       .  A
C412        C424   1.489       .  S
C413        C414   1.400       .  A
C413        H418   1.083       .  S
C414        C415   1.403       .  A
C415        C416   1.407       .  A
C415        H419   1.084       .  S
C416        C417   1.405       .  A
C417        H420   1.083       .  S
C421        C422   1.404       .  A
C421        C426   1.412       .  A
C422        C423   1.399       .  A
C422        H431   1.084       .  S
C423        C424   1.416       .  A
C423        S427   1.804       .  S
C424        C425   1.408       .  A
C425        C426   1.399       .  A
C425        H432   1.084       .  S
C426        S428   1.803       .  S
S427        H430   1.407       .  S
S428        H429   1.406       .  S
C433        C434   1.401       .  A
C433        C438   1.413       .  A
C434        C435   1.401       .  A
C434        H443   1.084       .  S
C435        C436   1.416       .  A
C435        S439   1.805       .  S
C436        C437   1.402       .  A
C437        C438   1.398       .  A
C437        H444   1.084       .  S
C438        S440   1.804       .  S
S439        H442   1.406       .  S
S440        H441   1.407       .  S
C445        C446   1.402       .  A
C445        C450   1.415       .  A
C446        C447   1.398       .  A
C446        H455   1.084       .  S
C447        C448   1.412       .  A
C447        S451   1.804       .  S
C448        C449   1.401       .  A
C449        C450   1.400       .  A
C449        H456   1.084       .  S
C450        S452   1.804       .  S
S451        H454   1.406       .  S
S452        H453   1.406   1_554  S
C457        C458   1.403       .  A
C457        C462   1.414       .  A
C458        C459   1.399   1_556  A
C458        H467   1.083       .  S
C459        C460   1.417       .  A
C459        S463   1.805       .  S
C460        C461   1.404       .  A
C461        C462   1.400   1_554  A
C461        H468   1.083       .  S
C462        S464   1.803       .  S
S463        H466   1.407       .  S
S464        H465   1.407       .  S
