geometry optimzed in LAMMPS
_audit_creation_date              2020-11-30 
_audit_creation_method            'lammps2cif' 
_symmetry_space_group_name_H-M    'P1' 
_symmetry_Int_Tables_number       1 
_symmetry_cell_setting            triclinic 
loop_ 
_symmetry_equiv_pos_as_xyz 
  x,y,z 
_cell_length_a                    95.45150637 
_cell_length_b                    95.07579762163995 
_cell_length_c                    95.0568507009366 
_cell_angle_alpha                 89.95691364249181 
_cell_angle_beta                  90.08060783542341 
_cell_angle_gamma                 89.98803921230915 
loop_ 
_atom_site_label 
_atom_site_type_symbol 
_atom_site_fract_x 
_atom_site_fract_y 
_atom_site_fract_z 
_atom_site_charge 
N1          N  0.18662865  0.68684836  0.99835819    -0.27300
N2          N  0.18050397  0.69253730  0.00942367    -0.35200
C3          C  0.18715410  0.70453665  0.01274841     0.01000
C4          C  0.19805385  0.70653885  0.00331489     0.07000
C5          C  0.19736121  0.69505533  0.99434129    -0.06100
H6          H  0.18427501  0.71118491  0.02150073     0.07700
H7          H  0.20404176  0.69280816  0.98544757     0.08900
Cu8        Cu  0.16345857  0.68371369  0.01956529     0.44200
Cu9        Cu  0.17995030  0.66835598  0.98909385     0.42000
Cu10       Cu  0.14892966  0.65221266  0.00424444     0.43900
N11         N  0.14666270  0.67288467  0.02805238    -0.34700
N12         N  0.14125816  0.66141596  0.02240432    -0.29000
C13         C  0.13050667  0.65700721  0.03038960    -0.05100
C14         C  0.12905658  0.66614279  0.04167700     0.07100
C15         C  0.13953060  0.67607668  0.03979887     0.00900
H16         H  0.12431468  0.64775735  0.02813021     0.08600
H17         H  0.14176722  0.68509570  0.04634641     0.07700
N18         N  0.15915244  0.64466416  0.98660036    -0.36200
N19         N  0.17055228  0.65041531  0.98122669    -0.28400
C20         C  0.17458711  0.64294748  0.96994764    -0.03600
C21         C  0.16524891  0.63194339  0.96806851     0.05000
C22         C  0.15560034  0.63339767  0.97885937     0.03100
H23         H  0.18354914  0.64554139  0.96350346     0.08200
H24         H  0.14668855  0.62673616  0.98105994     0.07000
N25         N  0.30747074  0.81642360  0.01110815    -0.27300
N26         N  0.30178051  0.82243830  0.99994312    -0.35200
C27         C  0.29057471  0.81490999  0.99588481     0.01000
C28         C  0.28907004  0.80355485  0.00492675     0.07000
C29         C  0.30001137  0.80490800  0.01446401    -0.06100
H30         H  0.28402123  0.81761939  0.98700310     0.07700
H31         H  0.30254983  0.79797384  0.02312002     0.08900
Cu32       Cu  0.30946714  0.84047766  0.99044692     0.44200
Cu33       Cu  0.32531804  0.82388521  0.02108028     0.42000
Cu34       Cu  0.34128372  0.85453453  0.00488619     0.43900
N35         N  0.31932086  0.85819444  0.98248990    -0.34700
N36         N  0.33107729  0.86330155  0.98773691    -0.29000
C37         C  0.33490236  0.87465538  0.98022970    -0.05100
C38         C  0.32505427  0.87686304  0.96969212     0.07100
C39         C  0.31531957  0.86616784  0.97150896     0.00900
H40         H  0.34415644  0.88084303  0.98240045     0.08600
H41         H  0.30607555  0.86415110  0.96524366     0.07700
N42         N  0.34940638  0.84430148  0.02234083    -0.36200
N43         N  0.34358863  0.83321285  0.02833320    -0.28400
C44         C  0.35145249  0.82926624  0.03940488    -0.03600
C45         C  0.36283023  0.83831662  0.04047134     0.05000
C46         C  0.36111238  0.84770463  0.02941399     0.03100
H47         H  0.34897393  0.82044477  0.04613558     0.08200
H48         H  0.36781950  0.85641783  0.02660584     0.07000
N49         N  0.31628806  0.00828489  0.81025151    -0.27300
N50         N  0.30973113  0.99789579  0.81671501    -0.35200
C51         C  0.29843818  0.99419373  0.80913022     0.01000
C52         C  0.29782633  0.00263090  0.79725005     0.07000
C53         C  0.30936146  0.01143922  0.79832983    -0.06100
H54         H  0.29130893  0.98585253  0.81204554     0.07700
H55         H  0.31243122  0.01968395  0.79112220     0.08900
Cu56       Cu  0.31635352  0.98905026  0.83548887     0.44200
Cu57       Cu  0.33416095  0.01783861  0.81812114     0.42000
Cu58       Cu  0.34741458  0.00361511  0.85115698     0.43900
N59         N  0.32500883  0.98158456  0.85403017    -0.34700
N60         N  0.33647586  0.98684702  0.85975416    -0.29000
C61         C  0.33942911  0.97967488  0.87159197    -0.05100
C62         C  0.32929197  0.96937229  0.87346259     0.07100
C63         C  0.32032539  0.97094743  0.86206894     0.00900
H64         H  0.34825390  0.98193812  0.87836478     0.08600
H65         H  0.31113419  0.96475659  0.85964599     0.07700
N66         N  0.35625843  0.02054828  0.84066083    -0.36200
N67         N  0.35145407  0.02572959  0.82868688    -0.28400
C68         C  0.35944333  0.03672416  0.82486099    -0.03600
C69         C  0.36983251  0.03858973  0.83490897     0.05000
C70         C  0.36743906  0.02809334  0.84476081     0.03100
H71         H  0.35777630  0.04282250  0.81540062     0.08200
H72         H  0.37324433  0.02611142  0.85433204     0.07000
N73         N  0.18853192  0.00961861  0.68683269    -0.27300
N74         N  0.19367368  0.99784592  0.68159238    -0.35200
C75         C  0.20442046  0.99353472  0.68965033     0.01000
C76         C  0.20619227  0.00305136  0.70057491     0.07000
C77         C  0.19587378  0.01312520  0.69838447    -0.06100
H78         H  0.21041755  0.98411118  0.68762262     0.07700
H79         H  0.19373054  0.02232917  0.70469218     0.08900
Cu80       Cu  0.18575485  0.98797261  0.66389424     0.44200
Cu81       Cu  0.17163696  0.02022450  0.67815556     0.42000
Cu82       Cu  0.15545807  0.00383431  0.64767617     0.43900
N83         N  0.17573232  0.97967288  0.64646165    -0.34700
N84         N  0.16461080  0.98543999  0.64053251    -0.29000
C85         C  0.16059397  0.97749074  0.62955912    -0.05100
C86         C  0.16963491  0.96610068  0.62849517     0.07100
C87         C  0.17910348  0.96789591  0.63944074     0.00900
H88         H  0.15167930  0.97986992  0.62294655     0.08600
H89         H  0.18787680  0.96122969  0.64215108     0.07700
N90         N  0.14845959  0.02236026  0.65668913    -0.36200
N91         N  0.15436274  0.02836075  0.66773489    -0.28400
C92         C  0.14731894  0.04018466  0.67087938    -0.03600
C93         C  0.13640531  0.04175134  0.66134262     0.05000
C94         C  0.13750499  0.03019581  0.65250686     0.03100
H95         H  0.15006406  0.04710884  0.67946600     0.08200
H96         H  0.13083086  0.02753486  0.64370719     0.07000
N97         N  0.19069006  0.81202985  0.51046450    -0.27300
N98         N  0.18525935  0.80616410  0.49910858    -0.35200
C99         C  0.19327037  0.79518473  0.49530663     0.01000
C100        C  0.20435666  0.79404753  0.50471305     0.07000
C101        C  0.20230875  0.80494886  0.51419215    -0.06100
H102        H  0.19123614  0.78871959  0.48618025     0.07700
H103        H  0.20878789  0.80767540  0.52311797     0.08900
Cu104      Cu  0.16750301  0.81361880  0.48897078     0.44200
Cu105      Cu  0.18247353  0.82977178  0.52003818     0.42000
Cu106      Cu  0.15279966  0.84587595  0.50284177     0.43900
N107        N  0.14992585  0.82343105  0.48071479    -0.34700
N108        N  0.14466616  0.83525406  0.48572982    -0.29000
C109        C  0.13327442  0.83878262  0.47821061    -0.05100
C110        C  0.13118036  0.82866765  0.46792134     0.07100
C111        C  0.14199803  0.81909911  0.46985777     0.00900
H112        H  0.12690705  0.84794474  0.48031555     0.08600
H113        H  0.14404279  0.80966327  0.46386342     0.07700
N114        N  0.16228354  0.85408609  0.52057616    -0.36200
N115        N  0.17310900  0.84817857  0.52691788    -0.28400
C116        C  0.17683511  0.85611015  0.53800481    -0.03600
C117        C  0.16789150  0.86758679  0.53871285     0.05000
C118        C  0.15878774  0.86590662  0.52746535     0.03100
H119        H  0.18539247  0.85360560  0.54503972     0.08200
H120        H  0.15033967  0.87282245  0.52434497     0.07000
N121        N  0.31630077  0.68639708  0.49423980    -0.27300
N122        N  0.31130481  0.68151819  0.50623975    -0.35200
C123        C  0.30021288  0.68931262  0.51006903     0.01000
C124        C  0.29808020  0.69971789  0.50003963     0.07000
C125        C  0.30850757  0.69745132  0.49011557    -0.06100
H126        H  0.29452247  0.68776947  0.51976874     0.07700
H127        H  0.31061905  0.70359482  0.48078267     0.08900
Cu128      Cu  0.32047625  0.66540622  0.51772637     0.44200
Cu129      Cu  0.33433547  0.67872672  0.48482281     0.42000
Cu130      Cu  0.35399438  0.65324230  0.50540755     0.43900
N131        N  0.33217091  0.65014381  0.52800269    -0.34700
N132        N  0.34448713  0.64572433  0.52348849    -0.29000
C133        C  0.34929263  0.63572039  0.53225379    -0.05100
C134        C  0.33954125  0.63372770  0.54287655     0.07100
C135        C  0.32882478  0.64311119  0.53980996     0.00900
H136        H  0.35917952  0.63033026  0.53093070     0.08600
H137        H  0.31916073  0.64457577  0.54554958     0.07700
N138        N  0.36082111  0.66148590  0.48643899    -0.36200
N139        N  0.35358044  0.67057743  0.47883515    -0.28400
C140        C  0.36079160  0.67357406  0.46707637    -0.03600
C141        C  0.37323483  0.66600022  0.46722873     0.05000
C142        C  0.37283265  0.65845994  0.47973228     0.03100
H143        H  0.35711444  0.68071765  0.45902875     0.08200
H144        H  0.38061080  0.65121892  0.48372974     0.07000
N145        N  0.70014025  0.17563975  0.00174875    -0.27300
N146        N  0.69403328  0.18128997  0.99062428    -0.35200
C147        C  0.70105632  0.19291173  0.98681298     0.01000
C148        C  0.71221997  0.19476900  0.99597166     0.07000
C149        C  0.71127025  0.18355077  0.00531132    -0.06100
H150        H  0.69809380  0.19950223  0.97803024     0.07700
H151        H  0.71807556  0.18125450  0.01411537     0.08900
Cu152      Cu  0.67633697  0.17325552  0.98109483     0.44200
Cu153      Cu  0.69278977  0.15763567  0.01175160     0.42000
Cu154      Cu  0.66129515  0.14226721  0.99660282     0.43900
N155        N  0.65850058  0.16366855  0.97345873    -0.34700
N156        N  0.65289986  0.15230876  0.97912853    -0.29000
C157        C  0.64127004  0.14889341  0.97190005    -0.05100
C158        C  0.63946720  0.15858625  0.96111643     0.07100
C159        C  0.65064751  0.16778689  0.96247046     0.00900
H160        H  0.63468458  0.13996977  0.97433938     0.08600
H161        H  0.65286218  0.17695994  0.95612140     0.07700
N162        N  0.67120912  0.13457920  0.01447392    -0.36200
N163        N  0.68262649  0.14014281  0.02004194    -0.28400
C164        C  0.68607772  0.13284952  0.03168512    -0.03600
C165        C  0.67636873  0.12212952  0.03357355     0.05000
C166        C  0.66711639  0.12360987  0.02239417     0.03100
H167        H  0.69503235  0.13522543  0.03824282     0.08200
H168        H  0.65791746  0.11734443  0.02021400     0.07000
N169        N  0.81691483  0.30935030  0.00295147    -0.27300
N170        N  0.82313467  0.30356155  0.99198292    -0.35200
C171        C  0.81601436  0.29196502  0.98821399     0.01000
C172        C  0.80472328  0.29034913  0.99724843     0.07000
C173        C  0.80569203  0.30159598  0.00647513    -0.06100
H174        H  0.81887511  0.28529285  0.97947254     0.07700
H175        H  0.79861973  0.30421090  0.01495492     0.08900
Cu176      Cu  0.84070633  0.31190992  0.98228752     0.44200
Cu177      Cu  0.82355082  0.32776905  0.01239864     0.42000
Cu178      Cu  0.85373198  0.34449950  0.99689091     0.43900
N179        N  0.85776726  0.32273466  0.97425657    -0.34700
N180        N  0.86247778  0.33464896  0.97960011    -0.29000
C181        C  0.87352105  0.33903508  0.97203338    -0.05100
C182        C  0.87594557  0.32942047  0.96133524     0.07100
C183        C  0.86569796  0.31921102  0.96312602     0.00900
H184        H  0.87935675  0.34850941  0.97430186     0.08600
H185        H  0.86399989  0.30991662  0.95680718     0.07700
N186        N  0.84320539  0.35239740  0.01418046    -0.36200
N187        N  0.83216065  0.34627567  0.01985843    -0.28400
C188        C  0.82787870  0.35389502  0.03094548    -0.03600
C189        C  0.83667376  0.36542784  0.03236789     0.05000
C190        C  0.84626400  0.36408744  0.02149258     0.03100
H191        H  0.81899201  0.35115840  0.03743055     0.08200
H192        H  0.85496767  0.37095030  0.01909416     0.07000
N193        N  0.68711280  0.98623115  0.18982951    -0.27300
N194        N  0.69353399  0.99710243  0.18406414    -0.35200
C195        C  0.70452188  0.00071182  0.19216282     0.01000
C196        C  0.70510104  0.99168051  0.20365276     0.07000
C197        C  0.69383758  0.98263102  0.20173933    -0.06100
H198        H  0.71147907  0.00936381  0.18980949     0.07700
H199        H  0.69063411  0.97406162  0.20848365     0.08900
Cu200      Cu  0.68692167  0.00672831  0.16556402     0.44200
Cu201      Cu  0.66936406  0.97687538  0.18139181     0.42000
Cu202      Cu  0.65583371  0.99209220  0.14919805     0.43900
N203        N  0.67790377  0.01476829  0.14732750    -0.34700
N204        N  0.66656642  0.00944221  0.14138396    -0.29000
C205        C  0.66326110  0.01718136  0.13000045    -0.05100
C206        C  0.67297627  0.02797684  0.12864319     0.07100
C207        C  0.68211268  0.02603341  0.13987266     0.00900
H208        H  0.65436895  0.01505303  0.12327914     0.08600
H209        H  0.69107732  0.03241531  0.14262193     0.07700
N210        N  0.64673175  0.97499395  0.15931262    -0.36200
N211        N  0.65169580  0.96946207  0.17105791    -0.28400
C212        C  0.64350423  0.95862565  0.17491031    -0.03600
C213        C  0.63279022  0.95719883  0.16512310     0.05000
C214        C  0.63522590  0.96781992  0.15538562     0.03100
H215        H  0.64524441  0.95235184  0.18424008     0.08200
H216        H  0.62918604  0.97016306  0.14604409     0.07000
N217        N  0.81237958  0.98445338  0.31626667    -0.27300
N218        N  0.80631994  0.99536668  0.32232831    -0.35200
C219        C  0.79526128  0.99939505  0.31453346     0.01000
C220        C  0.79429528  0.99062286  0.30291984     0.07000
C221        C  0.80536497  0.98126981  0.30441432    -0.06100
H222        H  0.78862015  0.00825588  0.31704891     0.07700
H223        H  0.80814782  0.97272033  0.29746283     0.08900
Cu224      Cu  0.81378439  0.00476917  0.34049575     0.44200
Cu225      Cu  0.83006291  0.97457327  0.32426231     0.42000
Cu226      Cu  0.84661598  0.99150804  0.35411884     0.43900
N227        N  0.82426562  0.01354962  0.35743191    -0.34700
N228        N  0.83637933  0.00886410  0.36225285    -0.29000
C229        C  0.84059875  0.01710658  0.37292444    -0.05100
C230        C  0.83065081  0.02755486  0.37496271     0.07100
C231        C  0.82043382  0.02489753  0.36490677     0.00900
H232        H  0.85030549  0.01562214  0.37860677     0.08600
H233        H  0.81092190  0.03077436  0.36301068     0.07700
N234        N  0.85403335  0.97327140  0.34490148    -0.36200
N235        N  0.84793862  0.96699548  0.33412150    -0.28400
C236        C  0.85523534  0.95536400  0.33083484    -0.03600
C237        C  0.86653948  0.95422874  0.33998280     0.05000
C238        C  0.86536976  0.96582853  0.34875932     0.03100
H239        H  0.85244581  0.94833357  0.32235304     0.08200
H240        H  0.87220189  0.96875761  0.35734669     0.07000
N241        N  0.50166846  0.81443072  0.19100063    -0.27300
N242        N  0.48930495  0.81027602  0.18631577    -0.35200
C243        C  0.48483380  0.79941506  0.19418430     0.01000
C244        C  0.49486282  0.79652246  0.20437143     0.07000
C245        C  0.50538434  0.80631935  0.20198494    -0.06100
H246        H  0.47498856  0.79404707  0.19251333     0.07700
H247        H  0.51515617  0.80741138  0.20764163     0.08900
Cu248      Cu  0.47913790  0.81924669  0.16922356     0.44200
Cu249      Cu  0.51302209  0.83090690  0.18227171     0.42000
Cu250      Cu  0.49691403  0.84822479  0.15244885     0.43900
N251        N  0.47153686  0.82948539  0.15151715    -0.34700
N252        N  0.47806427  0.84007539  0.14537272    -0.29000
C253        C  0.47063422  0.84421285  0.13408256    -0.05100
C254        C  0.45879899  0.83580158  0.13299584     0.07100
C255        C  0.45977223  0.82658221  0.14429510     0.00900
H256        H  0.47380265  0.85261635  0.12711363     0.08600
H257        H  0.45253034  0.81831547  0.14712618     0.07700
N258        N  0.51569742  0.85456479  0.16133962    -0.36200
N259        N  0.52165952  0.84824842  0.17218435    -0.28400
C260        C  0.53356626  0.85508321  0.17545845    -0.03600
C261        C  0.53521182  0.86629422  0.16621900     0.05000
C262        C  0.52362236  0.86556342  0.15741935     0.03100
H263        H  0.54044603  0.85206875  0.18398686     0.08200
H264        H  0.52094721  0.87258622  0.14888076     0.07000
N265        N  0.49199267  0.68561048  0.31413166    -0.27300
N266        N  0.50281127  0.67976220  0.30774297    -0.35200
C267        C  0.50604565  0.68744702  0.29630121     0.01000
C268        C  0.49682864  0.69872310  0.29543841     0.07000
C269        C  0.48808434  0.69715895  0.30697369    -0.06100
H270        H  0.51456366  0.68500791  0.28922338     0.07700
H271        H  0.47937087  0.70379163  0.30992838     0.08900
Cu272      Cu  0.51263360  0.66156360  0.31489383     0.44200
Cu273      Cu  0.48275290  0.67767029  0.33218308     0.42000
Cu274      Cu  0.49769051  0.64588267  0.34631533     0.43900
N275        N  0.52032248  0.64337687  0.32434304    -0.34700
N276        N  0.51483296  0.63772422  0.33577517    -0.29000
C277        C  0.52219612  0.62619765  0.33929268    -0.05100
C278        C  0.53292577  0.62441272  0.32961847     0.07100
C279        C  0.53134952  0.63556061  0.32027846     0.00900
H280        H  0.51982148  0.61965976  0.34828446     0.08600
H281        H  0.53777412  0.63796628  0.31123627     0.07700
N282        N  0.48069738  0.65606314  0.35520555    -0.36200
N283        N  0.47520243  0.66771635  0.35002696    -0.28400
C284        C  0.46446888  0.67174920  0.35822860    -0.03600
C285        C  0.46312348  0.66217436  0.36917663     0.05000
C286        C  0.47363350  0.65236307  0.36685313     0.03100
H287        H  0.45828427  0.68110315  0.35640319     0.08200
H288        H  0.47604187  0.64317470  0.37311061     0.07000
N289        N  0.00473031  0.68268661  0.19084379    -0.27300
N290        N  0.99283140  0.67760397  0.19575177    -0.35200
C291        C  0.98881378  0.68530577  0.20689146     0.01000
C292        C  0.99867518  0.69580783  0.20911399     0.07000
C293        C  0.00862374  0.69374942  0.19869730    -0.06100
H294        H  0.97929650  0.68344785  0.21275738     0.07700
H295        H  0.01801106  0.69982365  0.19683357     0.08900
Cu296      Cu  0.98263713  0.66055075  0.18689578     0.44200
Cu297      Cu  0.01486311  0.67481436  0.17334785     0.42000
Cu298      Cu  0.99799760  0.64643158  0.15477553     0.43900
N299        N  0.97508617  0.64304724  0.17639701    -0.34700
N300        N  0.98063387  0.63790867  0.16475682    -0.29000
C301        C  0.97344715  0.62637321  0.16091803    -0.05100
C302        C  0.96282211  0.62408900  0.17061335     0.07100
C303        C  0.96422984  0.63493653  0.18026648     0.00900
H304        H  0.97586746  0.62015876  0.15171902     0.08600
H305        H  0.95798207  0.63679553  0.18955649     0.07700
N306        N  0.01612637  0.65623061  0.14778379    -0.36200
N307        N  0.02240022  0.66643526  0.15479326    -0.28400
C308        C  0.03394963  0.67041334  0.14779032    -0.03600
C309        C  0.03505334  0.66234667  0.13570454     0.05000
C310        C  0.02351540  0.65346368  0.13606778     0.03100
H311        H  0.04089562  0.67871275  0.15122916     0.08200
H312        H  0.02074344  0.64543717  0.12850712     0.07000
N313        N  0.00195076  0.79996837  0.32464573    -0.27300
N314        N  0.99006612  0.80507349  0.31969031    -0.35200
C315        C  0.98638611  0.79782390  0.30814140     0.01000
C316        C  0.99647048  0.78761165  0.30562713     0.07000
C317        C  0.00617125  0.78932092  0.31638841    -0.06100
H318        H  0.97713024  0.80006187  0.30197303     0.07700
H319        H  0.01570095  0.78341898  0.31810493     0.08900
Cu320      Cu  0.97973292  0.82208100  0.32842418     0.44200
Cu321      Cu  0.01211111  0.80806995  0.34207570     0.42000
Cu322      Cu  0.99611487  0.83865763  0.35838730     0.43900
N323        N  0.97194548  0.83991380  0.33812309    -0.34700
N324        N  0.97794730  0.84602893  0.34904321    -0.29000
C325        C  0.97060328  0.85758273  0.35248819    -0.05100
C326        C  0.95938636  0.85885065  0.34326221     0.07100
C327        C  0.96061960  0.84739312  0.33431525     0.00900
H328        H  0.97336542  0.86454265  0.36104017     0.08600
H329        H  0.95399306  0.84475216  0.32547421     0.07700
N330        N  0.01454185  0.82948151  0.36529756    -0.36200
N331        N  0.02035552  0.81836686  0.35936226    -0.28400
C332        C  0.03220355  0.81514501  0.36628969    -0.03600
C333        C  0.03398764  0.82470560  0.37715958     0.05000
C334        C  0.02253437  0.83363851  0.37616486     0.03100
H335        H  0.03900846  0.80650801  0.36347294     0.08200
H336        H  0.02005336  0.84248596  0.38284878     0.07000
N337        N  0.81253525  0.50111782  0.18579928    -0.27300
N338        N  0.80716339  0.48966406  0.18008928    -0.35200
C339        C  0.79577480  0.48580827  0.18745692     0.01000
C340        C  0.79384316  0.49531297  0.19838159     0.07000
C341        C  0.80473584  0.50486622  0.19693372    -0.06100
H342        H  0.78938409  0.47677266  0.18491939     0.07700
H343        H  0.80696272  0.51389075  0.20347162     0.08900
Cu344      Cu  0.81554070  0.47992743  0.16247086     0.44200
Cu345      Cu  0.83020867  0.51122418  0.17829843     0.42000
Cu346      Cu  0.84593536  0.49691801  0.14697615     0.43900
N347        N  0.82577792  0.47263132  0.14466765    -0.34700
N348        N  0.83679958  0.47885743  0.13902793    -0.29000
C349        C  0.84093297  0.47151995  0.12769347    -0.05100
C350        C  0.83206919  0.46009024  0.12604963     0.07100
C351        C  0.82258222  0.46117044  0.13703924     0.00900
H352        H  0.84970083  0.47442320  0.12111200     0.08600
H353        H  0.81404529  0.45410216  0.13946124     0.07700
N354        N  0.85379252  0.51420487  0.15757581    -0.36200
N355        N  0.84807346  0.51939069  0.16909375    -0.28400
C356        C  0.85589145  0.53019608  0.17370543    -0.03600
C357        C  0.86716291  0.53193893  0.16465508     0.05000
C358        C  0.86541049  0.52156852  0.15452649     0.03100
H359        H  0.85355674  0.53614698  0.18309687     0.08200
H360        H  0.87212825  0.51931712  0.14566628     0.07000
N361        N  0.68411038  0.48613000  0.30802077    -0.27300
N362        N  0.67844542  0.49760738  0.30262389    -0.35200
C363        C  0.68602971  0.50170707  0.29143929     0.01000
C364        C  0.69704808  0.49235108  0.28968234     0.07000
C365        C  0.69542362  0.48258473  0.30040234    -0.06100
H366        H  0.68370675  0.51090850  0.28516296     0.07700
H367        H  0.70217761  0.47376974  0.30280729     0.08900
Cu368      Cu  0.66104994  0.50749403  0.31113996     0.44200
Cu369      Cu  0.67670994  0.47629736  0.32598273     0.42000
Cu370      Cu  0.64686076  0.49228555  0.34318982     0.43900
N371        N  0.64397864  0.51565647  0.32186217    -0.34700
N372        N  0.63872600  0.51008293  0.33345411    -0.29000
C373        C  0.62769697  0.51783207  0.33763031    -0.05100
C374        C  0.62593488  0.52888218  0.32825276     0.07100
C375        C  0.63648903  0.52712859  0.31840224     0.00900
H376        H  0.62154602  0.51563537  0.34692147     0.08600
H377        H  0.63852672  0.53359355  0.30926647     0.07700
N378        N  0.65705244  0.47448463  0.35071041    -0.36200
N379        N  0.66793918  0.46869532  0.34439759    -0.28400
C380        C  0.67213137  0.45742009  0.35182500    -0.03600
C381        C  0.66346058  0.45595069  0.36343461     0.05000
C382        C  0.65401145  0.46701397  0.36233519     0.03100
H383        H  0.68081014  0.45075819  0.34884125     0.08200
H384        H  0.64557350  0.46957041  0.36946499     0.07000
N385        N  0.18885618  0.49753241  0.81375252    -0.27300
N386        N  0.19370149  0.50951772  0.81882148    -0.35200
C387        C  0.20524270  0.51320132  0.81159563     0.01000
C388        C  0.20784160  0.50300002  0.80148640     0.07000
C389        C  0.19717934  0.49324607  0.80320863    -0.06100
H390        H  0.21136412  0.52252837  0.81373381     0.07700
H391        H  0.19546103  0.48374433  0.79720893     0.08900
Cu392      Cu  0.18456143  0.52003990  0.83557783     0.44200
Cu393      Cu  0.17116662  0.48743237  0.82128945     0.42000
Cu394      Cu  0.15341273  0.50367961  0.85037742     0.43900
N395        N  0.17382068  0.52773126  0.85290153    -0.34700
N396        N  0.16252924  0.52174393  0.85824010    -0.29000
C397        C  0.15835000  0.52905098  0.86956157    -0.05100
C398        C  0.16746060  0.54023845  0.87154218     0.07100
C399        C  0.17713529  0.53903059  0.86071149     0.00900
H400        H  0.14937615  0.52624426  0.87588926     0.08600
H401        H  0.18607384  0.54570109  0.85867686     0.07700
N402        N  0.14652004  0.48542020  0.84086038    -0.36200
N403        N  0.15303902  0.47944814  0.83018092    -0.28400
C404        C  0.14586940  0.46795429  0.82621388    -0.03600
C405        C  0.13422281  0.46658982  0.83482689     0.05000
C406        C  0.13503420  0.47788974  0.84401299     0.03100
H407        H  0.14896715  0.46115551  0.81765449     0.08200
H408        H  0.12771760  0.48065854  0.85223135     0.07000
N409        N  0.31780072  0.50873937  0.69190002    -0.27300
N410        N  0.32369691  0.49755442  0.69763698    -0.35200
C411        C  0.31599555  0.49338041  0.70870678     0.01000
C412        C  0.30461224  0.50236919  0.71005900     0.07000
C413        C  0.30616607  0.51198791  0.69916142    -0.06100
H414        H  0.31853148  0.48437812  0.71517961     0.07700
H415        H  0.29942407  0.52077520  0.69664802     0.08900
Cu416      Cu  0.34181305  0.48836431  0.68999350     0.44200
Cu417      Cu  0.32587708  0.51899610  0.67442197     0.42000
Cu418      Cu  0.35722100  0.50391942  0.65882159     0.43900
N419        N  0.35956311  0.48062095  0.68019383    -0.34700
N420        N  0.36518377  0.48618491  0.66878692    -0.29000
C421        C  0.37647483  0.47856180  0.66511323    -0.05100
C422        C  0.37807900  0.46762875  0.67469279     0.07100
C423        C  0.36709885  0.46933975  0.68409034     0.00900
H424        H  0.38299465  0.48090072  0.65612214     0.08600
H425        H  0.36460642  0.46286372  0.69309292     0.07700
N426        N  0.34731196  0.52185452  0.65126380    -0.36200
N427        N  0.33594563  0.52734322  0.65697094    -0.28400
C428        C  0.33225383  0.53889329  0.64968846    -0.03600
C429        C  0.34174669  0.54084447  0.63880423     0.05000
C430        C  0.35114663  0.52977101  0.64018938     0.03100
H431        H  0.32324537  0.54530809  0.65218428     0.08200
H432        H  0.36018854  0.52758160  0.63371706     0.07000
N433        N  0.51036786  0.18777243  0.81767064    -0.27300
N434        N  0.49837031  0.18292401  0.81274555    -0.35200
C435        C  0.49429453  0.19088471  0.80179990     0.01000
C436        C  0.50422774  0.20132260  0.79966516     0.07000
C437        C  0.51426923  0.19897168  0.80998928    -0.06100
H438        H  0.48477511  0.18910886  0.79589101     0.07700
H439        H  0.52380575  0.20483016  0.81179262     0.08900
Cu440      Cu  0.48824399  0.16557679  0.82096032     0.44200
Cu441      Cu  0.52088767  0.17883433  0.83453153     0.42000
Cu442      Cu  0.50485265  0.14807671  0.85044656     0.43900
N443        N  0.48032496  0.14776242  0.83051550    -0.34700
N444        N  0.48632787  0.14132123  0.84125857    -0.29000
C445        C  0.47853923  0.13010093  0.84484881    -0.05100
C446        C  0.46703629  0.12941935  0.83590779     0.07100
C447        C  0.46858710  0.14084484  0.82696530     0.00900
H448        H  0.48117507  0.12298353  0.85332121     0.08600
H449        H  0.46172865  0.14403330  0.81848724     0.07700
N450        N  0.52336697  0.15706238  0.85748897    -0.36200
N451        N  0.52920935  0.16822639  0.85166186    -0.28400
C452        C  0.54096754  0.17145038  0.85874676    -0.03600
C453        C  0.54266880  0.16185965  0.86963399     0.05000
C454        C  0.53125247  0.15288582  0.86844886     0.03100
H455        H  0.54763934  0.18026485  0.85617053     0.08200
H456        H  0.52874767  0.14396493  0.87503554     0.07000
N457        N  0.50009938  0.31580627  0.69395087    -0.27300
N458        N  0.51135462  0.31018711  0.68815594    -0.35200
C459        C  0.51487719  0.29853502  0.69537897     0.01000
C460        C  0.50537116  0.29671194  0.70629029     0.07000
C461        C  0.49616258  0.30792385  0.70498043    -0.06100
H462        H  0.52372419  0.29193051  0.69279425     0.07700
H463        H  0.48725974  0.31034301  0.71156116     0.08900
Cu464      Cu  0.52139155  0.31865755  0.67070868     0.44200
Cu465      Cu  0.49044994  0.33396642  0.68689928     0.42000
Cu466      Cu  0.50587373  0.35065003  0.65678404     0.43900
N467        N  0.52884847  0.32918641  0.65307300    -0.34700
N468        N  0.52306817  0.34074948  0.64796627    -0.29000
C469        C  0.52997085  0.34465447  0.63628703    -0.05100
C470        C  0.54068665  0.33512522  0.63389198     0.07100
C471        C  0.53965809  0.32547611  0.64479970     0.00900
H472        H  0.52733894  0.35379347  0.63003858     0.08600
H473        H  0.54606040  0.31623285  0.64645166     0.07700
N474        N  0.48835345  0.35838003  0.66700226    -0.36200
N475        N  0.48265521  0.35224230  0.67806044    -0.28400
C476        C  0.47141142  0.35970137  0.68214670    -0.03600
C477        C  0.46990830  0.37114005  0.67319214     0.05000
C478        C  0.48089835  0.36991270  0.66372587     0.03100
H479        H  0.46478955  0.35685605  0.69091690     0.08200
H480        H  0.48341252  0.37687484  0.65509630     0.07000
N481        N  0.80988209  0.18170719  0.49334801    -0.27300
N482        N  0.81646210  0.18838120  0.50359017    -0.35200
C483        C  0.80900320  0.19978062  0.50725780     0.01000
C484        C  0.79710300  0.20038260  0.49890121     0.07000
C485        C  0.79804807  0.18870955  0.49019564    -0.06100
H486        H  0.81216851  0.20713367  0.51532975     0.07700
H487        H  0.79067799  0.18543421  0.48219637     0.08900
Cu488      Cu  0.83523958  0.18176668  0.51221047     0.44200
Cu489      Cu  0.81737847  0.16346017  0.48409498     0.42000
Cu490      Cu  0.84971322  0.14946705  0.49873885     0.43900
N491        N  0.85346532  0.17276187  0.51979599    -0.34700
N492        N  0.85873527  0.16086502  0.51498010    -0.29000
C493        C  0.87045062  0.15779458  0.52222856    -0.05100
C494        C  0.87269037  0.16828462  0.53213841     0.07100
C495        C  0.86165701  0.17759398  0.53022698     0.00900
H496        H  0.87674332  0.14851182  0.52044413     0.08600
H497        H  0.85965589  0.18721796  0.53593007     0.07700
N498        N  0.83915229  0.14058809  0.48186855    -0.36200
N499        N  0.82742613  0.14568301  0.47650830    -0.28400
C500        C  0.82351717  0.13767189  0.46553796    -0.03600
C501        C  0.83326278  0.12695944  0.46384825     0.05000
C502        C  0.84301587  0.12920283  0.47446072     0.03100
H503        H  0.81426443  0.13963580  0.45927001     0.08200
H504        H  0.85233029  0.12312439  0.47667800     0.07000
N505        N  0.68978371  0.31262474  0.49439578    -0.27300
N506        N  0.68400810  0.30694770  0.50566641    -0.35200
C507        C  0.69149942  0.29557460  0.50946579     0.01000
C508        C  0.70253983  0.29399614  0.50009676     0.07000
C509        C  0.70106547  0.30505643  0.49070424    -0.06100
H510        H  0.68893569  0.28889593  0.51830516     0.07700
H511        H  0.70767476  0.30753305  0.48181551     0.08900
Cu512      Cu  0.66611041  0.31491319  0.51514386     0.44200
Cu513      Cu  0.68200703  0.33014032  0.48417694     0.42000
Cu514      Cu  0.65022047  0.34517803  0.49778046     0.43900
N515        N  0.64826367  0.32508692  0.52234962    -0.34700
N516        N  0.64249114  0.33604033  0.51603828    -0.29000
C517        C  0.63117766  0.34011118  0.52339704    -0.05100
C518        C  0.62968475  0.33130636  0.53496262     0.07100
C519        C  0.64077481  0.32190656  0.53388981     0.00900
H520        H  0.62460165  0.34889663  0.52046996     0.08600
H521        H  0.64333133  0.31336080  0.54094508     0.07700
N522        N  0.66024163  0.35255004  0.47985749    -0.36200
N523        N  0.67193849  0.34701657  0.47494277    -0.28400
C524        C  0.67580948  0.35398852  0.46328206    -0.03600
C525        C  0.66608164  0.36450488  0.46066695     0.05000
C526        C  0.65635300  0.36324476  0.47144769     0.03100
H527        H  0.68510810  0.35157786  0.45726475     0.08200
H528        H  0.64704627  0.36952062  0.47305598     0.07000
N529        N  0.01397662  0.19167149  0.68095622    -0.27300
N530        N  0.00174805  0.19632360  0.67641348    -0.35200
C531        C  0.99745404  0.20684049  0.68481003     0.01000
C532        C  0.00746723  0.20895783  0.69522075     0.07000
C533        C  0.01780683  0.19909001  0.69236367    -0.06100
H534        H  0.98768274  0.21241391  0.68340322     0.07700
H535        H  0.02740506  0.19729007  0.69813743     0.08900
Cu536      Cu  0.99139618  0.18797607  0.65911634     0.44200
Cu537      Cu  0.02456059  0.17506460  0.67175407     0.42000
Cu538      Cu  0.00727107  0.15755263  0.64256282     0.43900
N539        N  0.98316120  0.17799313  0.64154550    -0.34700
N540        N  0.98890358  0.16686975  0.63554769    -0.29000
C541        C  0.98109344  0.16306817  0.62439954    -0.05100
C542        C  0.96985557  0.17226627  0.62325646     0.07100
C543        C  0.97155875  0.18158380  0.63435831     0.00900
H544        H  0.98359730  0.15435220  0.61754912     0.08600
H545        H  0.96487078  0.19033351  0.63711414     0.07700
N546        N  0.02589191  0.15070880  0.65149457    -0.36200
N547        N  0.03223128  0.15720922  0.66199775    -0.28400
C548        C  0.04384609  0.15004080  0.66550530    -0.03600
C549        C  0.04493352  0.13837527  0.65681263     0.05000
C550        C  0.03331546  0.13920547  0.64803839     0.03100
H551        H  0.05082442  0.15310308  0.67392469     0.08200
H552        H  0.03028035  0.13193149  0.63985035     0.07000
N553        N  0.99861758  0.31324219  0.81080740    -0.27300
N554        N  0.00930489  0.31976165  0.80485795    -0.35200
C555        C  0.01312613  0.31269049  0.79324193     0.01000
C556        C  0.00439034  0.30114742  0.79171780     0.07000
C557        C  0.99529694  0.30187676  0.80306972    -0.06100
H558        H  0.02160393  0.31582828  0.78638931     0.07700
H559        H  0.98702974  0.29456163  0.80570282     0.08900
Cu560      Cu  0.01833670  0.33792137  0.81276207     0.44200
Cu561      Cu  0.98935464  0.31988488  0.82941156     0.42000
Cu562      Cu  0.00434108  0.35104916  0.84548992     0.43900
N563        N  0.02585423  0.35569157  0.82284205    -0.34700
N564        N  0.02073436  0.36047998  0.83481173    -0.29000
C565        C  0.02809654  0.37184543  0.83879041    -0.05100
C566        C  0.03844329  0.37437907  0.82885323     0.07100
C567        C  0.03662505  0.36387761  0.81887189     0.00900
H568        H  0.02609782  0.37764679  0.84835217     0.08600
H569        H  0.04278417  0.36206887  0.80951362     0.07700
N570        N  0.98795490  0.33971987  0.85414912    -0.36200
N571        N  0.98239965  0.32844303  0.84824509    -0.28400
C572        C  0.97178347  0.32383739  0.85630569    -0.03600
C573        C  0.97057993  0.33262683  0.86788893     0.05000
C574        C  0.98106517  0.34256216  0.86613926     0.03100
H575        H  0.96543223  0.31474863  0.85384374     0.08200
H576        H  0.98335962  0.35143213  0.87287366     0.07000
C577        C  0.00714792  0.21941948  0.70685672    -0.03400
C578        C  0.01795469  0.21989489  0.71696393    -0.09200
C579        C  0.01771270  0.22988021  0.72776848    -0.16800
C580        C  0.00668577  0.23953190  0.72865904     0.25300
C581        C  0.99584096  0.23908729  0.71876539    -0.18500
C582        C  0.99605194  0.22912566  0.70795674    -0.07400
C583        C  0.00653106  0.24999040  0.73961497    -0.13900
C584        C  0.00624927  0.25888318  0.74865754    -0.13600
C585        C  0.00576680  0.26954714  0.75940338     0.25200
C586        C  0.99356860  0.27147429  0.76732363    -0.19000
C587        C  0.99310593  0.28174972  0.77783649    -0.07500
C588        C  0.00483630  0.29029869  0.78052273    -0.03500
C589        C  0.01702250  0.28834207  0.77243400    -0.08900
C590        C  0.01748259  0.27801460  0.76197238    -0.16500
H591        H  0.02664668  0.21261701  0.71657525     0.11700
H592        H  0.02616147  0.23010696  0.73538999     0.10900
H593        H  0.98723822  0.24649981  0.71935781     0.10900
H594        H  0.98753239  0.22915579  0.70045646     0.11400
H595        H  0.98441361  0.26502094  0.76538516     0.11500
H596        H  0.98351818  0.28306778  0.78374986     0.11400
H597        H  0.02628059  0.29463937  0.77429279     0.11600
H598        H  0.02698904  0.27661041  0.75591687     0.10400
C599        C  0.88422019  0.16926389  0.54260170    -0.03400
C600        C  0.89589223  0.16024700  0.54178471    -0.09200
C601        C  0.90666918  0.16109963  0.55172552    -0.16800
C602        C  0.90595512  0.17095507  0.56262005     0.25300
C603        C  0.89444172  0.18000788  0.56351192    -0.18500
C604        C  0.88365348  0.17918677  0.55358285    -0.07400
C605        C  0.91696307  0.17165880  0.57295902    -0.13900
C606        C  0.92617259  0.17201243  0.58164659    -0.13600
C607        C  0.93716612  0.17213921  0.59202693     0.25200
C608        C  0.93895381  0.18381336  0.60079410    -0.19000
C609        C  0.94957382  0.18387129  0.61094680    -0.07500
C610        C  0.95858212  0.17223288  0.61246591    -0.03500
C611        C  0.95669635  0.16056097  0.60355531    -0.08900
C612        C  0.94605942  0.16052597  0.59342722    -0.16500
H613        H  0.89678690  0.15255837  0.53345732     0.11700
H614        H  0.91554891  0.15404484  0.55092789     0.10900
H615        H  0.89376512  0.18766078  0.57192454     0.10900
H616        H  0.87483569  0.18624314  0.55465442     0.11400
H617        H  0.93213887  0.19287523  0.59978746     0.11500
H618        H  0.95074995  0.19309082  0.61749838     0.11400
H619        H  0.96331977  0.15137372  0.60445393     0.11600
H620        H  0.94474826  0.15141488  0.58671213     0.10400
C621        C  0.78592765  0.21121959  0.49914862    -0.03400
C622        C  0.78485915  0.22066998  0.51049413    -0.09200
C623        C  0.77438975  0.23094542  0.51066948    -0.16800
C624        C  0.76486133  0.23193340  0.49952488     0.25300
C625        C  0.76580806  0.22259534  0.48820485    -0.18500
C626        C  0.77625377  0.21229387  0.48801138    -0.07400
C627        C  0.75411941  0.24252933  0.49969773    -0.13900
C628        C  0.74511704  0.25140907  0.49980678    -0.13600
C629        C  0.73439526  0.26202676  0.49987114     0.25200
C630        C  0.72565903  0.26356259  0.51157119    -0.19000
C631        C  0.71526196  0.27392183  0.51165239    -0.07500
C632        C  0.71348317  0.28290922  0.50001287    -0.03500
C633        C  0.72232160  0.28122425  0.48828150    -0.08900
C634        C  0.73269401  0.27085600  0.48822714    -0.16500
H635        H  0.79201203  0.22010010  0.51930995     0.11700
H636        H  0.77372373  0.23811134  0.51950238     0.10900
H637        H  0.75848977  0.22329474  0.47950807     0.10900
H638        H  0.77680642  0.20530568  0.47905711     0.11400
H639        H  0.72690636  0.25677711  0.52065019     0.11500
H640        H  0.70874690  0.27493918  0.52089425     0.11400
H641        H  0.72121722  0.28781533  0.47907209     0.11600
H642        H  0.73938407  0.26972624  0.47909651     0.10400
C643        C  0.55076253  0.33505516  0.62203686    -0.03400
C644        C  0.56343162  0.32756530  0.62306857    -0.09200
C645        C  0.57287173  0.32740485  0.61183297    -0.16800
C646        C  0.56976083  0.33465790  0.59939747     0.25300
C647        C  0.55719627  0.34216156  0.59827078    -0.18500
C648        C  0.54776952  0.34239742  0.60952222    -0.07400
C649        C  0.57946946  0.33434675  0.58781903    -0.13900
C650        C  0.58783570  0.33388676  0.57833190    -0.13600
C651        C  0.59815052  0.33313231  0.56731535     0.25200
C652        C  0.59795847  0.34283531  0.55625017    -0.19000
C653        C  0.60815583  0.34222863  0.54570859    -0.07500
C654        C  0.61872974  0.33188504  0.54607839    -0.03500
C655        C  0.61874383  0.32213190  0.55724326    -0.08900
C656        C  0.60853819  0.32276718  0.56776029    -0.16500
H657        H  0.56612643  0.32192706  0.63258860     0.11700
H658        H  0.58259284  0.32160174  0.61283956     0.10900
H659        H  0.55466467  0.34779459  0.58868564     0.10900
H660        H  0.53806346  0.34815743  0.60831628     0.11400
H661        H  0.58996225  0.35091451  0.55579708     0.11500
H662        H  0.60771555  0.34991902  0.53734011     0.11400
H663        H  0.62663006  0.31400369  0.55795996     0.11600
H664        H  0.60879178  0.31519670  0.57628407     0.10400
C665        C  0.50511876  0.28539373  0.71708453    -0.03400
C666        C  0.51586168  0.27525661  0.71771547    -0.09200
C667        C  0.51562631  0.26468505  0.72794711    -0.16800
C668        C  0.50467165  0.26407381  0.73768295     0.25300
C669        C  0.49393498  0.27405866  0.73716057    -0.18500
C670        C  0.49413654  0.28463363  0.72694844    -0.07400
C671        C  0.50445783  0.25323154  0.74823308    -0.13900
C672        C  0.50430675  0.24419374  0.75712219    -0.13600
C673        C  0.50424010  0.23346580  0.76778903     0.25200
C674        C  0.51442885  0.23353697  0.77836782    -0.19000
C675        C  0.51442099  0.22311558  0.78873957    -0.07500
C676        C  0.50419777  0.21243947  0.78867744    -0.03500
C677        C  0.49397844  0.21249551  0.77796944    -0.08900
C678        C  0.49401401  0.22293877  0.76761033    -0.16500
H679        H  0.52450803  0.27546569  0.71038642     0.11700
H680        H  0.52400544  0.25700078  0.72827533     0.10900
H681        H  0.48539623  0.27367550  0.74465204     0.10900
H682        H  0.48563955  0.29214687  0.72683686     0.11400
H683        H  0.52238754  0.24165880  0.77860728     0.11500
H684        H  0.52241304  0.22352151  0.79679624     0.11400
H685        H  0.48597545  0.20446765  0.77747788     0.11600
H686        H  0.48607821  0.22278485  0.75944920     0.10400
C687        C  0.45896887  0.38223574  0.67359197    -0.03400
C688        C  0.44995880  0.38351901  0.68524249    -0.09200
C689        C  0.43978766  0.39410680  0.68563120    -0.16800
C690        C  0.43846856  0.40353261  0.67439627     0.25300
C691        C  0.44728713  0.40228744  0.66273540    -0.18500
C692        C  0.45745865  0.39173144  0.66231999    -0.07400
C693        C  0.42815097  0.41455428  0.67481612    -0.13900
C694        C  0.41960728  0.42388971  0.67494284    -0.13600
C695        C  0.40937238  0.43499991  0.67497341     0.25200
C696        C  0.40900420  0.44480082  0.66399435    -0.19000
C697        C  0.39890082  0.45546106  0.66391330    -0.07500
C698        C  0.38899465  0.45646362  0.67483717    -0.03500
C699        C  0.38956908  0.44658730  0.68588345    -0.08900
C700        C  0.39967258  0.43594956  0.68593074    -0.16500
H701        H  0.45082150  0.37648025  0.69414386     0.11700
H702        H  0.43300504  0.39498106  0.69471967     0.10900
H703        H  0.44632281  0.40950455  0.65395928     0.10900
H704        H  0.46406011  0.39102683  0.65311482     0.11400
H705        H  0.41648285  0.44416277  0.65545288     0.11500
H706        H  0.39884273  0.46280441  0.65522522     0.11400
H707        H  0.38224304  0.44699020  0.69453080     0.11600
H708        H  0.39988126  0.42842949  0.69450024     0.10400
C709        C  0.12311764  0.45570332  0.83409374    -0.03400
C710        C  0.12199973  0.44686193  0.82227327    -0.09200
C711        C  0.11139374  0.43676626  0.82147314    -0.16800
C712        C  0.10177700  0.43533861  0.83246272     0.25300
C713        C  0.10282743  0.44400224  0.84430336    -0.18500
C714        C  0.11341694  0.45412370  0.84512610    -0.07400
C715        C  0.09080930  0.42501648  0.83156080    -0.13900
C716        C  0.08161114  0.41637117  0.83084048    -0.13600
C717        C  0.07064288  0.40603055  0.83017529     0.25200
C718        C  0.06098593  0.40493060  0.84116022    -0.19000
C719        C  0.05044797  0.39474481  0.84067867    -0.07500
C720        C  0.04941772  0.38546547  0.82917800    -0.03500
C721        C  0.05913861  0.38677121  0.81811355    -0.08900
C722        C  0.06967237  0.39697563  0.81862966    -0.16500
H723        H  0.12917563  0.44781617  0.81353263     0.11700
H724        H  0.11065993  0.43011427  0.81225078     0.10900
H725        H  0.09544984  0.44294931  0.85289308     0.10900
H726        H  0.11400626  0.46062622  0.85443915     0.11400
H727        H  0.06164400  0.41190341  0.85014891     0.11500
H728        H  0.04322682  0.39413725  0.84940375     0.11400
H729        H  0.05870920  0.37991943  0.80905446     0.11600
H730        H  0.07709567  0.39775788  0.81005069     0.10400
C731        C  0.21947260  0.50252667  0.79113965    -0.03400
C732        C  0.22248861  0.49003266  0.78379478    -0.09200
C733        C  0.23333417  0.48960562  0.77393532    -0.16800
C734        C  0.24132017  0.50163939  0.77124829     0.25300
C735        C  0.23847398  0.51409799  0.77853802    -0.18500
C736        C  0.22764384  0.51454858  0.78843003    -0.07400
C737        C  0.25229526  0.50125497  0.76087592    -0.13900
C738        C  0.26136285  0.50108493  0.75205232    -0.13600
C739        C  0.27209061  0.50119450  0.74141492     0.25200
C740        C  0.28350416  0.49201116  0.74236567    -0.19000
C741        C  0.29403882  0.49232102  0.73215152    -0.07500
C742        C  0.29331511  0.50185126  0.72081259    -0.03500
C743        C  0.28170290  0.51095254  0.71992051    -0.08900
C744        C  0.27119281  0.51061655  0.73014515    -0.16500
H745        H  0.21655538  0.48053003  0.78568458     0.11700
H746        H  0.23545924  0.47989352  0.76837562     0.10900
H747        H  0.24457385  0.52349280  0.77651789     0.10900
H748        H  0.22558943  0.52436614  0.79378814     0.11400
H749        H  0.28430836  0.48466247  0.75104761     0.11500
H750        H  0.30277399  0.48516692  0.73327370     0.11400
H751        H  0.28066076  0.51836068  0.71135068     0.11600
H752        H  0.26238310  0.51775618  0.72928319     0.10400
C753        C  0.66413910  0.44493240  0.37451996    -0.03400
C754        C  0.65318967  0.44338218  0.38430842    -0.09200
C755        C  0.65383430  0.43299048  0.39470878    -0.16800
C756        C  0.66541187  0.42399943  0.39550748     0.25300
C757        C  0.67635808  0.42543007  0.38584722    -0.18500
C758        C  0.67573893  0.43580761  0.37542698    -0.07400
C759        C  0.66605807  0.41338307  0.40629956    -0.13900
C760        C  0.66633232  0.40467787  0.41553055    -0.13600
C761        C  0.66629723  0.39455282  0.42680055     0.25200
C762        C  0.67503869  0.38275339  0.42625365    -0.19000
C763        C  0.67497265  0.37296313  0.43724722    -0.07500
C764        C  0.66613046  0.37484037  0.44895001    -0.03500
C765        C  0.65736905  0.38673803  0.44935960    -0.08900
C766        C  0.65747289  0.39651400  0.43837022    -0.16500
H767        H  0.64405339  0.45009794  0.38392307     0.11700
H768        H  0.64528938  0.43196907  0.40213198     0.10900
H769        H  0.68539280  0.41854769  0.38638564     0.10900
H770        H  0.68442116  0.43670144  0.36818866     0.11400
H771        H  0.68189494  0.38111051  0.41732948     0.11500
H772        H  0.68177188  0.36389610  0.43647819     0.11400
H773        H  0.65051756  0.38861917  0.45821207     0.11600
H774        H  0.65067797  0.40562772  0.43891363     0.10400
C775        C  0.70845246  0.49299728  0.27910799    -0.03400
C776        C  0.71103482  0.50546237  0.27154237    -0.09200
C777        C  0.72191727  0.50610807  0.26172701    -0.16800
C778        C  0.73033489  0.49431192  0.25929819     0.25300
C779        C  0.72784549  0.48186268  0.26673947    -0.18500
C780        C  0.71699722  0.48119987  0.27658627    -0.07400
C781        C  0.74141729  0.49490861  0.24906177    -0.13900
C782        C  0.75059777  0.49518524  0.24036587    -0.13600
C783        C  0.76143360  0.49524964  0.22985065     0.25200
C784        C  0.77091405  0.50643468  0.22910670    -0.19000
C785        C  0.78143271  0.50647648  0.21888274    -0.07500
C786        C  0.78263245  0.49530072  0.20922833    -0.03500
C787        C  0.77300529  0.48411182  0.21008464    -0.08900
C788        C  0.76249923  0.48410275  0.22031941    -0.16500
H789        H  0.70478232  0.51478654  0.27329080     0.11700
H790        H  0.72376067  0.51580787  0.25603255     0.10900
H791        H  0.73426810  0.47264804  0.26490416     0.10900
H792        H  0.71525565  0.47140191  0.28210575     0.11400
H793        H  0.77017463  0.51513608  0.23642370     0.11500
H794        H  0.78854424  0.51531652  0.21857463     0.11400
H795        H  0.77356582  0.47529808  0.20292995     0.11600
H796        H  0.75521075  0.47538075  0.22080572     0.10400
C797        C  0.95227783  0.61259997  0.17066182    -0.03400
C798        C  0.94105720  0.61276627  0.18026864    -0.09200
C799        C  0.93096049  0.60212703  0.18009397    -0.16800
C800        C  0.93192006  0.59116397  0.17035059     0.25300
C801        C  0.94310102  0.59077573  0.16087021    -0.18500
C802        C  0.95321917  0.60140155  0.16101822    -0.07400
C803        C  0.92121875  0.58054096  0.16982714    -0.13900
C804        C  0.91201849  0.57189615  0.16915464    -0.13600
C805        C  0.90084576  0.56181501  0.16810542     0.25200
C806        C  0.90076649  0.55199681  0.15716655    -0.19000
C807        C  0.88981854  0.54230869  0.15601189    -0.07500
C808        C  0.87875953  0.54230175  0.16580919    -0.03500
C809        C  0.87896438  0.55226339  0.17677163    -0.08900
C810        C  0.88993057  0.56193712  0.17789602    -0.16500
H811        H  0.93990225  0.62117888  0.18782228     0.11700
H812        H  0.92232230  0.60253509  0.18746707     0.10900
H813        H  0.94394121  0.58231797  0.15328345     0.10900
H814        H  0.96172142  0.60079821  0.15354146     0.11400
H815        H  0.90916031  0.55184174  0.14950537     0.11500
H816        H  0.89010319  0.53485924  0.14743475     0.11400
H817        H  0.87068947  0.55266799  0.18450950     0.11600
H818        H  0.88987512  0.56953436  0.18638785     0.10400
C819        C  0.99850814  0.70696434  0.22002174    -0.03400
C820        C  0.00807022  0.71823085  0.21943467    -0.09200
C821        C  0.00789873  0.72874600  0.22969160    -0.16800
C822        C  0.99818931  0.72816507  0.24067030     0.25300
C823        C  0.98863008  0.71704345  0.24136805    -0.18500
C824        C  0.98877335  0.70651063  0.23112399    -0.07400
C825        C  0.99811007  0.73889415  0.25130598    -0.13900
C826        C  0.99799643  0.74768194  0.26042131    -0.13600
C827        C  0.99775203  0.75787971  0.27156540     0.25200
C828        C  0.00875656  0.75846021  0.28126720    -0.19000
C829        C  0.00837064  0.76812572  0.29232684    -0.07500
C830        C  0.99693767  0.77736846  0.29384278    -0.03500
C831        C  0.98595749  0.77671733  0.28394664    -0.08900
C832        C  0.98637801  0.76704155  0.27289931    -0.16500
H833        H  0.01565071  0.71904160  0.21103485     0.11700
H834        H  0.01534468  0.73732388  0.22905854     0.10900
H835        H  0.98108943  0.71648591  0.24986061     0.10900
H836        H  0.98131661  0.69799812  0.23201302     0.11400
H837        H  0.01761139  0.75139066  0.28032685     0.11500
H838        H  0.01704666  0.76828187  0.29964336     0.11400
H839        H  0.97697074  0.78359013  0.28470318     0.11600
H840        H  0.97778637  0.76665315  0.26544639     0.10400
C841        C  0.54378038  0.61316991  0.32945854    -0.03400
C842        C  0.55338329  0.61213070  0.31826782    -0.09200
C843        C  0.56364235  0.60161487  0.31820769    -0.16800
C844        C  0.56447593  0.59197281  0.32930385     0.25300
C845        C  0.55497893  0.59286754  0.34045535    -0.18500
C846        C  0.54471403  0.60336482  0.34054686    -0.07400
C847        C  0.57507060  0.58117468  0.32926376    -0.13900
C848        C  0.58393423  0.57212332  0.32923255    -0.13600
C849        C  0.59451963  0.56131757  0.32910464     0.25200
C850        C  0.59250735  0.54883168  0.33664568    -0.19000
C851        C  0.60274822  0.53830156  0.33644214    -0.07500
C852        C  0.61512933  0.54009724  0.32862268    -0.03500
C853        C  0.61705714  0.55270230  0.32109733    -0.08900
C854        C  0.60683314  0.56323832  0.32136831    -0.16500
H855        H  0.55301245  0.61938389  0.30951128     0.11700
H856        H  0.57093049  0.60101261  0.30950009     0.10900
H857        H  0.55552164  0.58546221  0.34911001     0.10900
H858        H  0.53760665  0.60378023  0.34937785     0.11400
H859        H  0.58300160  0.54721302  0.34264849     0.11500
H860        H  0.60086047  0.52869798  0.34225220     0.11400
H861        H  0.62650951  0.55450985  0.31509428     0.11600
H862        H  0.60852685  0.57287619  0.31552293     0.10400
C863        C  0.49460736  0.78518000  0.21514973    -0.03400
C864        C  0.50460221  0.78487459  0.22605795    -0.09200
C865        C  0.50458880  0.77399358  0.23597036    -0.16800
C866        C  0.49460280  0.76325492  0.23515734     0.25300
C867        C  0.48451976  0.76352631  0.22446515    -0.18500
C868        C  0.48450000  0.77440197  0.21454218    -0.07400
C869        C  0.49478028  0.75192284  0.24523294    -0.13900
C870        C  0.49504492  0.74249617  0.25373838    -0.13600
C871        C  0.49540458  0.73142460  0.26409601     0.25200
C872        C  0.48803089  0.73292792  0.27670966    -0.19000
C873        C  0.48847684  0.72230084  0.28687625    -0.07500
C874        C  0.49634440  0.70998216  0.28459245    -0.03500
C875        C  0.50371041  0.70856292  0.27184858    -0.08900
C876        C  0.50322301  0.71920765  0.26167628    -0.16500
H877        H  0.51245308  0.79301821  0.22699656     0.11700
H878        H  0.51241425  0.77392890  0.24423878     0.10900
H879        H  0.47672399  0.75527595  0.22373507     0.10900
H880        H  0.47667388  0.77419978  0.20631079     0.11400
H881        H  0.48197370  0.74235289  0.27872097     0.11500
H882        H  0.48276983  0.72385748  0.29657119     0.11400
H883        H  0.50977242  0.69920771  0.26965134     0.11600
H884        H  0.50896347  0.71791543  0.25193710     0.10400
C885        C  0.87754311  0.94316634  0.34023315    -0.03400
C886        C  0.88831614  0.94348978  0.35037565    -0.09200
C887        C  0.89872846  0.93315616  0.35052182    -0.16800
C888        C  0.89854421  0.92234454  0.34056680     0.25300
C889        C  0.88789745  0.92187250  0.33046206    -0.18500
C890        C  0.87746728  0.93219258  0.33028485    -0.07400
C891        C  0.90920826  0.91166934  0.34080655    -0.13900
C892        C  0.91804863  0.90263131  0.34113334    -0.13600
C893        C  0.92844839  0.89170578  0.34163513     0.25200
C894        C  0.92700202  0.87977468  0.33317226    -0.19000
C895        C  0.93702427  0.86907603  0.33372719    -0.07500
C896        C  0.94867220  0.87016622  0.34277150    -0.03500
C897        C  0.95000047  0.88223155  0.35125536    -0.08900
C898        C  0.93995354  0.89291604  0.35067646    -0.16500
H899        H  0.88878412  0.95168778  0.35823159     0.11700
H900        H  0.90691863  0.93359638  0.35841494     0.10900
H901        H  0.88764951  0.91351940  0.32271668     0.10900
H902        H  0.86940873  0.93152003  0.32231533     0.11400
H903        H  0.91810223  0.87871954  0.32616302     0.11500
H904        H  0.93554247  0.85995550  0.32710664     0.11400
H905        H  0.95881487  0.88352850  0.35828969     0.11600
H906        H  0.94116276  0.90212064  0.35728219     0.10400
C907        C  0.83103884  0.03922296  0.38533354    -0.03400
C908        C  0.84142198  0.03964325  0.39586708    -0.09200
C909        C  0.84189473  0.05075625  0.40547627    -0.16800
C910        C  0.83201477  0.06159357  0.40471445     0.25300
C911        C  0.82160510  0.06125488  0.39436013    -0.18500
C912        C  0.82110390  0.05016182  0.38473914    -0.07400
C913        C  0.83253594  0.07305506  0.41455984    -0.13900
C914        C  0.83287234  0.08262434  0.42285573    -0.13600
C915        C  0.83313536  0.09391269  0.43291158     0.25200
C916        C  0.82251222  0.10404107  0.43290157    -0.19000
C917        C  0.82257562  0.11482649  0.44289037    -0.07500
C918        C  0.83328903  0.11563312  0.45306769    -0.03500
C919        C  0.84399235  0.10542801  0.45287174    -0.08900
C920        C  0.84389747  0.09465986  0.44287127    -0.16500
H921        H  0.84918674  0.03141053  0.39676747     0.11700
H922        H  0.84997614  0.05089894  0.41349198     0.10900
H923        H  0.81389420  0.06959546  0.39368948     0.10900
H924        H  0.81299194  0.05029251  0.37679411     0.11400
H925        H  0.81412664  0.10355812  0.42522105     0.11500
H926        H  0.81417241  0.12244289  0.44261488     0.11400
H927        H  0.85243830  0.10563885  0.46045164     0.11600
H928        H  0.85218119  0.08686506  0.44296538     0.10400
C929        C  0.62131314  0.94660984  0.16507710    -0.03400
C930        C  0.62163623  0.93506815  0.17437295    -0.09200
C931        C  0.61086707  0.92509370  0.17431439    -0.16800
C932        C  0.59959728  0.92647616  0.16499411     0.25300
C933        C  0.59914459  0.93789857  0.15571155    -0.18500
C934        C  0.60991169  0.94789086  0.15573773    -0.07400
C935        C  0.58851051  0.91618450  0.16499909    -0.13900
C936        C  0.57927731  0.90751409  0.16513857    -0.13600
C937        C  0.56826828  0.89714370  0.16539224     0.25200
C938        C  0.55845651  0.89657284  0.15446667    -0.19000
C939        C  0.54774403  0.88654166  0.15471314    -0.07500
C940        C  0.54666899  0.87689637  0.16592041    -0.03500
C941        C  0.55662524  0.87755957  0.17684895    -0.08900
C942        C  0.56732903  0.88761105  0.17657440    -0.16500
H943        H  0.63023672  0.93362006  0.18164534     0.11700
H944        H  0.61134497  0.91628576  0.18153986     0.10900
H945        H  0.59045668  0.93909820  0.14846057     0.10900
H946        H  0.60920340  0.95664061  0.14849728     0.15000
H947        H  0.55908501  0.90388308  0.14574001     0.11500
H948        H  0.54038948  0.88635268  0.14605629     0.11400
H949        H  0.55614232  0.87041473  0.18568963     0.11600
H950        H  0.57485929  0.88796175  0.18510697     0.10400
C951        C  0.71538779  0.99178195  0.21544963    -0.03400
C952        C  0.71437534  0.98198475  0.22653733    -0.09200
C953        C  0.72404116  0.98212739  0.23761861    -0.16800
C954        C  0.73486568  0.99204269  0.23781648     0.25300
C955        C  0.73598806  0.00181890  0.22687767    -0.18500
C956        C  0.72634490  0.00170434  0.21578633    -0.07400
C957        C  0.74489102  0.99212844  0.24916310    -0.13900
C958        C  0.75342284  0.99214147  0.25854164    -0.13600
C959        C  0.76374609  0.99195730  0.26961172     0.25200
C960        C  0.77616971  0.98434266  0.26789627    -0.19000
C961        C  0.78612635  0.98394389  0.27869388    -0.07500
C962        C  0.78380741  0.99119336  0.29138424    -0.03500
C963        C  0.77132875  0.99893274  0.29295257    -0.08900
C964        C  0.76136868  0.99928548  0.28214496    -0.16500
H965        H  0.70614654  0.97417960  0.22673143     0.11700
H966        H  0.72307467  0.97448681  0.24602544     0.10900
H967        H  0.74434091  0.00953459  0.22690436     0.10900
H968        H  0.72755160  0.00941090  0.20751292     0.11400
H969        H  0.77814934  0.97867204  0.25821762     0.11500
H970        H  0.79565431  0.97801847  0.27702647     0.11400
H971        H  0.76912903  0.00456543  0.30258282     0.11600
H972        H  0.75178330  0.00521235  0.28359749     0.10400
C973        C  0.88711989  0.32991373  0.95048051    -0.03400
C974        C  0.89564903  0.34191462  0.94901382    -0.09200
C975        C  0.90631365  0.34228539  0.93895689    -0.16800
C976        C  0.90861992  0.33069671  0.93021372     0.25300
C977        C  0.90014825  0.31876313  0.93148206    -0.18500
C978        C  0.88947365  0.31835922  0.94153016    -0.07400
C979        C  0.91968356  0.33102764  0.91995538    -0.13900
C980        C  0.92885001  0.33119661  0.91124751    -0.13600
C981        C  0.93952216  0.33129345  0.90057371     0.25200
C982        C  0.93754980  0.32366319  0.88815622    -0.19000
C983        C  0.94772225  0.32395415  0.87760252    -0.07500
C984        C  0.96001633  0.33194320  0.87930232    -0.03500
C985        C  0.96196731  0.33947585  0.89190167    -0.08900
C986        C  0.95178379  0.33913497  0.90246641    -0.16500
H987        H  0.89412590  0.35106771  0.95557667     0.11700
H988        H  0.91277842  0.35160545  0.93802384     0.10900
H989        H  0.90183366  0.30973447  0.92474336     0.10900
H990        H  0.88320415  0.30892425  0.94232811     0.11400
H991        H  0.92808450  0.31757275  0.88657667     0.11500
H992        H  0.94579546  0.31812068  0.86802939     0.11400
H993        H  0.97135371  0.34561165  0.89364357     0.11600
H994        H  0.95343787  0.34504822  0.91206605     0.10400
C995        C  0.83263013  0.44912225  0.11498665    -0.03400
C996        C  0.84472336  0.44740092  0.10670273    -0.09200
C997        C  0.84524900  0.43701323  0.09631963    -0.16800
C998        C  0.83370642  0.42824002  0.09405422     0.25300
C999        C  0.82161963  0.42988848  0.10218502    -0.18500
C1000       C  0.82107623  0.44024435  0.11259357    -0.07400
C1001       C  0.83426986  0.41751309  0.08342666    -0.13900
C1002       C  0.83469451  0.40848655  0.07455512    -0.13600
C1003       C  0.83516921  0.39770827  0.06397666     0.25200
C1004       C  0.82665450  0.38580520  0.06518789    -0.19000
C1005       C  0.82710258  0.37531927  0.05490507    -0.07500
C1006       C  0.83610276  0.37659977  0.04324840    -0.03500
C1007       C  0.84460971  0.38864801  0.04214664    -0.08900
C1008       C  0.84413694  0.39911387  0.05244599    -0.16500
H1009       H  0.85385395  0.45394419  0.10831233     0.11700
H1010       H  0.85467003  0.43580034  0.09008964     0.10900
H1011       H  0.81261057  0.42316614  0.10048228     0.10900
H1012       H  0.81155407  0.44134380  0.11864930     0.11400
H1013       H  0.81968177  0.38461438  0.07409531     0.11500
H1014       H  0.82046465  0.36619942  0.05620462     0.11400
H1015       H  0.85159457  0.39009382  0.03332017     0.11600
H1016       H  0.85075807  0.40831106  0.05140407     0.10400
C1017       C  0.67587218  0.11147741  0.04504459    -0.03400
C1018       C  0.66689739  0.09975949  0.04405213    -0.09200
C1019       C  0.66647813  0.08968368  0.05477760    -0.16800
C1020       C  0.67498881  0.09113437  0.06668342     0.25300
C1021       C  0.68390045  0.10277172  0.06782938    -0.18500
C1022       C  0.68435484  0.11286542  0.05710111    -0.07400
C1023       C  0.67466164  0.08059742  0.07761757    -0.13900
C1024       C  0.67436398  0.07160258  0.08659772    -0.13600
C1025       C  0.67399771  0.06070719  0.09717532     0.25200
C1026       C  0.68505390  0.05926398  0.10675128    -0.19000
C1027       C  0.68474612  0.04864258  0.11695662    -0.07500
C1028       C  0.67334853  0.03925911  0.11775506    -0.03500
C1029       C  0.66228400  0.04082181  0.10804812    -0.08900
C1030       C  0.66261985  0.05145438  0.09785940    -0.16500
H1031       H  0.66028080  0.09823089  0.03493859     0.11700
H1032       H  0.65955208  0.08071442  0.05374439     0.10900
H1033       H  0.69052826  0.10403321  0.07700435     0.10900
H1034       H  0.69130365  0.12176428  0.05833166     0.11400
H1035       H  0.69394152  0.06633766  0.10631818     0.11500
H1036       H  0.69349881  0.04779323  0.12413756     0.11400
H1037       H  0.65329430  0.03391373  0.10830791     0.11600
H1038       H  0.65398956  0.05245359  0.09050914     0.10400
C1039       C  0.62804588  0.15912469  0.95053712    -0.03400
C1040       C  0.61570138  0.15126474  0.95244437    -0.09200
C1041       C  0.60496342  0.15177186  0.94244016    -0.16800
C1042       C  0.60641854  0.16010514  0.93039666     0.25300
C1043       C  0.61862287  0.16799122  0.92841019    -0.18500
C1044       C  0.62936324  0.16752557  0.93840674    -0.07400
C1045       C  0.59544729  0.16047273  0.92001961    -0.13900
C1046       C  0.58630772  0.16070908  0.91126522    -0.13600
C1047       C  0.57542217  0.16094214  0.90079207     0.25200
C1048       C  0.57607563  0.17051359  0.88963861    -0.19000
C1049       C  0.56547680  0.17078473  0.87947890    -0.07500
C1050       C  0.55403407  0.16146772  0.88033509    -0.03500
C1051       C  0.55353690  0.15184124  0.89159516    -0.08900
C1052       C  0.56415441  0.15159599  0.90173616    -0.16500
H1053       H  0.61424890  0.14480050  0.96169618     0.11700
H1054       H  0.59553525  0.14564756  0.94409115     0.10900
H1055       H  0.61986549  0.17445708  0.91910324     0.10900
H1056       H  0.63873584  0.17362603  0.93650862     0.11400
H1057       H  0.58477783  0.17778115  0.88879445     0.11500
H1058       H  0.56632977  0.17829591  0.87098164     0.11400
H1059       H  0.54493823  0.14452884  0.89269349     0.11600
H1060       H  0.56355293  0.14413342  0.91033573     0.10400
C1061       C  0.79372611  0.27934085  0.99683557    -0.03400
C1062       C  0.78444972  0.27759692  0.00820508    -0.09200
C1063       C  0.77396453  0.26735550  0.00772410    -0.16800
C1064       C  0.77259288  0.25872898  0.99589518     0.25300
C1065       C  0.78176712  0.26033284  0.98455134    -0.18500
C1066       C  0.79227395  0.27055677  0.98500807    -0.07400
C1067       C  0.76188158  0.24811928  0.99548552    -0.13900
C1068       C  0.75305306  0.23907276  0.99536644    -0.13600
C1069       C  0.74275086  0.22805509  0.99552647     0.25200
C1070       C  0.74315076  0.21779865  0.00606438    -0.19000
C1071       C  0.73323549  0.20699266  0.00623176    -0.07500
C1072       C  0.72274673  0.20628319  0.99582906    -0.03500
C1073       C  0.72244307  0.21670978  0.98528134    -0.08900
C1074       C  0.73237850  0.22750694  0.98514611    -0.16500
H1075       H  0.78530688  0.28404597  0.01753361     0.11700
H1076       H  0.76694729  0.26614668  0.01659377     0.10900
H1077       H  0.78079422  0.25368893  0.97534515     0.10900
H1078       H  0.79912258  0.27163712  0.97601977     0.11400
H1079       H  0.75115012  0.21813955  0.01415638     0.11500
H1080       H  0.73385100  0.19924442  0.01453552     0.11400
H1081       H  0.71459796  0.21658407  0.97707359     0.11600
H1082       H  0.73198386  0.23540441  0.97692920     0.10400
C1083       C  0.34022402  0.62350055  0.55466291    -0.03400
C1084       C  0.33144286  0.62497000  0.56645634    -0.09200
C1085       C  0.33191000  0.61514859  0.57741802    -0.16800
C1086       C  0.34112162  0.60371536  0.57673690     0.25300
C1087       C  0.34996201  0.60221611  0.56510692    -0.18500
C1088       C  0.34954882  0.61204136  0.55416093    -0.07400
C1089       C  0.34136053  0.59338407  0.58782945    -0.13900
C1090       C  0.34153707  0.58450130  0.59690012    -0.13600
C1091       C  0.34170942  0.57367388  0.60751163     0.25200
C1092       C  0.35134537  0.56262278  0.60663901    -0.19000
C1093       C  0.35140348  0.55198427  0.61681257    -0.07500
C1094       C  0.34179153  0.55222569  0.62804320    -0.03500
C1095       C  0.33217868  0.56344708  0.62883017    -0.08900
C1096       C  0.33214720  0.57406979  0.61863943    -0.16500
H1097       H  0.32424584  0.63372267  0.56727467     0.11700
H1098       H  0.32503501  0.61643463  0.58638597     0.10900
H1099       H  0.35710988  0.59338657  0.56444576     0.10900
H1100       H  0.35637323  0.61049086  0.54522004     0.11400
H1101       H  0.35878731  0.56219130  0.59805254     0.11500
H1102       H  0.35893241  0.54355764  0.61575800     0.11400
H1103       H  0.32466261  0.56410535  0.63729894     0.11600
H1104       H  0.32463437  0.58257722  0.61942726     0.10400
C1105       C  0.45290641  0.66251933  0.38094168    -0.03400
C1106       C  0.45456796  0.65362275  0.39268008    -0.09200
C1107       C  0.44503287  0.65406923  0.40382205    -0.16800
C1108       C  0.43370124  0.66338497  0.40340191     0.25300
C1109       C  0.43190467  0.67223413  0.39177701    -0.18500
C1110       C  0.44142778  0.67181897  0.38062456    -0.07400
C1111       C  0.42388066  0.66384570  0.41485845    -0.13900
C1112       C  0.41546174  0.66431219  0.42428457    -0.13600
C1113       C  0.40509701  0.66495130  0.43523704     0.25200
C1114       C  0.39367701  0.67406715  0.43391144    -0.19000
C1115       C  0.38339042  0.67450126  0.44434738    -0.07500
C1116       C  0.38435833  0.66578411  0.45629591    -0.03500
C1117       C  0.39599480  0.65674641  0.45757603    -0.08900
C1118       C  0.40627237  0.65633894  0.44711279    -0.16500
H1119       H  0.46328837  0.64639613  0.39338503     0.11700
H1120       H  0.44652111  0.64716885  0.41277803     0.10900
H1121       H  0.42313248  0.67945764  0.39132622     0.10900
H1122       H  0.43970512  0.67873860  0.37175596     0.11400
H1123       H  0.39267532  0.68079531  0.42475846     0.11500
H1124       H  0.37469314  0.68165005  0.44295280     0.11400
H1125       H  0.39717262  0.64987281  0.46656231     0.11600
H1126       H  0.41508256  0.64923636  0.44824432     0.10400
C1127       C  0.11975993  0.82811520  0.45733973    -0.03400
C1128       C  0.11761097  0.81594401  0.44919266    -0.09200
C1129       C  0.10687556  0.81545819  0.43920194    -0.16800
C1130       C  0.09815434  0.82710572  0.43720942     0.25300
C1131       C  0.10013453  0.83923295  0.44527495    -0.18500
C1132       C  0.11085815  0.83975110  0.45527536    -0.07400
C1133       C  0.08724384  0.82665630  0.42681063    -0.13900
C1134       C  0.07812628  0.82633811  0.41806033    -0.13600
C1135       C  0.06719951  0.82601016  0.40767531     0.25200
C1136       C  0.05765935  0.83712728  0.40674260    -0.19000
C1137       C  0.04690153  0.83675109  0.39677732    -0.07500
C1138       C  0.04553797  0.82521497  0.38759873    -0.03500
C1139       C  0.05528057  0.81413194  0.38857720    -0.08900
C1140       C  0.06602987  0.81454109  0.39855638    -0.16500
H1141       H  0.12413281  0.80674059  0.45053953     0.11700
H1142       H  0.10539335  0.80600419  0.43301749     0.10900
H1143       H  0.09343011  0.84831470  0.44379114     0.10900
H1144       H  0.11220378  0.84932805  0.46125208     0.11400
H1145       H  0.05851312  0.84607645  0.41374378     0.11500
H1146       H  0.03972271  0.84553497  0.39629367     0.11400
H1147       H  0.05457196  0.80505058  0.38177563     0.11600
H1148       H  0.07338093  0.80587758  0.39920740     0.10400
C1149       C  0.28765768  0.71134134  0.50050419    -0.03400
C1150       C  0.28805246  0.72237633  0.49060814    -0.09200
C1151       C  0.27845169  0.73347965  0.49136190    -0.16800
C1152       C  0.26832554  0.73371961  0.50198868     0.25300
C1153       C  0.26777674  0.72278128  0.51180425    -0.18500
C1154       C  0.27733722  0.71167872  0.51107533    -0.07400
C1155       C  0.25826841  0.74498115  0.50269204    -0.13900
C1156       C  0.24937046  0.75396599  0.50327274    -0.13600
C1157       C  0.23818156  0.76411018  0.50367581     0.25200
C1158       C  0.22660440  0.76246385  0.49480463    -0.19000
C1159       C  0.21560976  0.77215650  0.49516970    -0.07500
C1160       C  0.21601561  0.78368755  0.50444284    -0.03500
C1161       C  0.22771455  0.78522524  0.51336921    -0.08900
C1162       C  0.23871361  0.77549705  0.51297737    -0.16500
H1163       H  0.29580854  0.72255471  0.48233245     0.11700
H1164       H  0.27893020  0.74187001  0.48365781     0.10900
H1165       H  0.25992133  0.72281011  0.52002298     0.10900
H1166       H  0.27656117  0.70338997  0.51882191     0.11400
H1167       H  0.22605440  0.75364856  0.48760657     0.11500
H1168       H  0.20678810  0.77050614  0.48822061     0.11400
H1169       H  0.22847969  0.79396554  0.52060026     0.11600
H1170       H  0.24762247  0.77686311  0.51991910     0.10400
C1171       C  0.12587041  0.05322657  0.66072713    -0.03400
C1172       C  0.11659263  0.05431431  0.64924428    -0.09200
C1173       C  0.10665768  0.06509505  0.64868807    -0.16800
C1174       C  0.10584060  0.07493911  0.65957220     0.25300
C1175       C  0.11500049  0.07399286  0.67102545    -0.18500
C1176       C  0.12495005  0.06322127  0.67161383    -0.07400
C1177       C  0.09555581  0.08596456  0.65901080    -0.13900
C1178       C  0.08686691  0.09513933  0.65853862    -0.13600
C1179       C  0.07643582  0.10602780  0.65802089     0.25200
C1180       C  0.07666525  0.11690994  0.66789473    -0.19000
C1181       C  0.06647404  0.12745143  0.66747667    -0.07500
C1182       C  0.05587061  0.12725689  0.65715227    -0.03500
C1183       C  0.05578963  0.11625382  0.64723954    -0.08900
C1184       C  0.06600051  0.10572314  0.64768897    -0.16500
H1185       H  0.11699783  0.04692340  0.64061774     0.11700
H1186       H  0.09961257  0.06574988  0.63976249     0.10900
H1187       H  0.11443096  0.08156061  0.67952356     0.10900
H1188       H  0.13181149  0.06272393  0.68065892     0.11400
H1189       H  0.08470467  0.11723169  0.67594851     0.11500
H1190       H  0.06693619  0.13566579  0.67531510     0.11400
H1191       H  0.04787999  0.11570942  0.63910975     0.11600
H1192       H  0.06574094  0.09733121  0.63998603     0.10400
C1193       C  0.16929943  0.95456491  0.61797062    -0.03400
C1194       C  0.16010257  0.95515193  0.60638548    -0.09200
C1195       C  0.15988815  0.94432928  0.59644058    -0.16800
C1196       C  0.16883763  0.93277433  0.59791851     0.25300
C1197       C  0.17797967  0.93204074  0.60939856    -0.18500
C1198       C  0.17821890  0.94284069  0.61935817    -0.07400
C1199       C  0.16866589  0.92167797  0.58765360    -0.13900
C1200       C  0.16856053  0.91234531  0.57908879    -0.13600
C1201       C  0.16842042  0.90116181  0.56891983     0.25200
C1202       C  0.18015462  0.89249222  0.56734655    -0.19000
C1203       C  0.17999149  0.88155282  0.55753413    -0.07500
C1204       C  0.16807829  0.87917104  0.54913061    -0.03500
C1205       C  0.15634735  0.88798531  0.55077387    -0.08900
C1206       C  0.15652482  0.89889162  0.56062077    -0.16500
H1207       H  0.15312502  0.96398556  0.60488108     0.11700
H1208       H  0.15276671  0.94499632  0.58757777     0.10900
H1209       H  0.18493435  0.92311667  0.61065468     0.10900
H1210       H  0.18537017  0.94190960  0.62813742     0.11400
H1211       H  0.18943232  0.89418646  0.57370389     0.11500
H1212       H  0.18925107  0.87508128  0.55646254     0.11400
H1213       H  0.14695938  0.88639178  0.54458951     0.11600
H1214       H  0.14737083  0.90552920  0.56178452     0.10400
C1215       C  0.38100829  0.04943708  0.83512988    -0.03400
C1216       C  0.39229407  0.04834657  0.84462046    -0.09200
C1217       C  0.40284350  0.05852637  0.84481182    -0.16800
C1218       C  0.40227785  0.06993845  0.83554812     0.25300
C1219       C  0.39110756  0.07116946  0.82608865    -0.18500
C1220       C  0.38053873  0.06099284  0.82586520    -0.07400
C1221       C  0.41323351  0.08030219  0.83569174    -0.13900
C1222       C  0.42253542  0.08885746  0.83581129    -0.13600
C1223       C  0.43369449  0.09899926  0.83585952     0.25200
C1224       C  0.43438065  0.10921026  0.82530205    -0.19000
C1225       C  0.44522545  0.11906927  0.82529296    -0.07500
C1226       C  0.45556693  0.11886652  0.83588049    -0.03500
C1227       C  0.45477524  0.10850177  0.84644031    -0.08900
C1228       C  0.44390896  0.09864614  0.84641536    -0.16500
H1229       H  0.39310715  0.03958142  0.85182916     0.11700
H1230       H  0.41147337  0.05746370  0.85215530     0.10900
H1231       H  0.39057038  0.07998635  0.81887795     0.10900
H1232       H  0.37199189  0.06227353  0.81849465     0.11400
H1233       H  0.42653369  0.10954896  0.81705919     0.11500
H1234       H  0.44545401  0.12677986  0.81693691     0.11400
H1235       H  0.46246550  0.10798666  0.85478413     0.11600
H1236       H  0.44346858  0.09076097  0.85463913     0.10400
C1237       C  0.28712093  0.00231178  0.78594723    -0.03400
C1238       C  0.27412715  0.99568578  0.78818202    -0.09200
C1239       C  0.26401596  0.99538779  0.77754119    -0.16800
C1240       C  0.26675573  0.00165949  0.76452120     0.25300
C1241       C  0.27964616  0.00825299  0.76217090    -0.18500
C1242       C  0.28976409  0.00860599  0.77281528    -0.07400
C1243       C  0.25629285  0.00144619  0.75362512    -0.13900
C1244       C  0.24750009  0.00145027  0.74451786    -0.13600
C1245       C  0.23702906  0.00172377  0.73363047     0.25200
C1246       C  0.23645500  0.99095616  0.72363910    -0.19000
C1247       C  0.22641154  0.99134394  0.71292989    -0.07500
C1248       C  0.21677661  0.00254226  0.71205071    -0.03500
C1249       C  0.21742423  0.01327635  0.72223506    -0.08900
C1250       C  0.22747872  0.01285488  0.73293003    -0.16500
H1251       H  0.27166717  0.99086629  0.79819058     0.11700
H1252       H  0.25404614  0.99030311  0.77948704     0.10900
H1253       H  0.28187400  0.01313081  0.75211440     0.10900
H1254       H  0.29968055  0.01368257  0.77068606     0.11400
H1255       H  0.24380434  0.98227907  0.72409168     0.11500
H1256       H  0.22628592  0.98285833  0.70537213     0.11400
H1257       H  0.21024561  0.02206610  0.72197951     0.11600
H1258       H  0.22783723  0.02125137  0.74062375     0.10400
C1259       C  0.32828280  0.95892414  0.88504451    -0.03400
C1260       C  0.31586534  0.95122063  0.88718714    -0.09200
C1261       C  0.31497222  0.94130271  0.89802925    -0.16800
C1262       C  0.32646157  0.93891790  0.90687212     0.25300
C1263       C  0.33883310  0.94654585  0.90486785    -0.18500
C1264       C  0.33974658  0.95648563  0.89405467    -0.07400
C1265       C  0.32565023  0.92853406  0.91788826    -0.13900
C1266       C  0.32525500  0.91974169  0.92703970    -0.13600
C1267       C  0.32510520  0.90913250  0.93787033     0.25200
C1268       C  0.33699282  0.90692504  0.94621018    -0.19000
C1269       C  0.33696810  0.89649281  0.95659201    -0.07500
C1270       C  0.32503110  0.88807227  0.95877940    -0.03500
C1271       C  0.31310579  0.89043035  0.95035762    -0.08900
C1272       C  0.31315629  0.90088356  0.93999006    -0.16500
H1273       H  0.30678329  0.95288115  0.88057458     0.11700
H1274       H  0.30532982  0.93547320  0.89948985     0.10900
H1275       H  0.34781119  0.94476089  0.91162515     0.10900
H1276       H  0.34950179  0.96210372  0.89268542     0.11400
H1277       H  0.34632039  0.91322490  0.94464198     0.11500
H1278       H  0.34637543  0.89496403  0.96275746     0.11400
H1279       H  0.30368566  0.88427716  0.95177456     0.11600
H1280       H  0.30388211  0.90250514  0.93360559     0.10400
C1281       C  0.37429216  0.83808973  0.05108446    -0.03400
C1282       C  0.38479866  0.84849914  0.05099476    -0.09200
C1283       C  0.39554093  0.84834077  0.06099929    -0.16800
C1284       C  0.39597541  0.83780087  0.07124923     0.25300
C1285       C  0.38563463  0.82738000  0.07144570    -0.18500
C1286       C  0.37487038  0.82750667  0.06144830    -0.07400
C1287       C  0.40697642  0.83772847  0.08161413    -0.13900
C1288       C  0.41608872  0.83760049  0.09040698    -0.13600
C1289       C  0.42679717  0.83721517  0.10107039     0.25200
C1290       C  0.42710341  0.82617148  0.11078562    -0.19000
C1291       C  0.43746430  0.82572691  0.12117875    -0.07500
C1292       C  0.44771172  0.83634767  0.12201276    -0.03500
C1293       C  0.44727901  0.84743754  0.11218161    -0.08900
C1294       C  0.43689266  0.84785399  0.10179264    -0.16500
H1295       H  0.38477673  0.85683794  0.04326340     0.11700
H1296       H  0.40349260  0.85646938  0.06075497     0.10900
H1297       H  0.38587589  0.81916041  0.07934497     0.10900
H1298       H  0.36705345  0.81929413  0.06189782     0.11400
H1299       H  0.41933667  0.81787399  0.11031602     0.11500
H1300       H  0.43744822  0.81698168  0.12845260     0.11400
H1301       H  0.45488673  0.85585499  0.11249921     0.11600
H1302       H  0.43673421  0.85647800  0.09433501     0.10400
C1303       C  0.04618649  0.66306604  0.12485496    -0.03400
C1304       C  0.05889841  0.67004063  0.12766135    -0.09200
C1305       C  0.06942760  0.67065835  0.11747488    -0.16800
C1306       C  0.06740475  0.66435121  0.10434318     0.25300
C1307       C  0.05479005  0.65744913  0.10141086    -0.18500
C1308       C  0.04425153  0.65678681  0.11159349    -0.07400
C1309       C  0.07830986  0.66483695  0.09392210    -0.13900
C1310       C  0.08737273  0.66505441  0.08510778    -0.13600
C1311       C  0.09799589  0.66513056  0.07438740     0.25200
C1312       C  0.09652090  0.65657700  0.06251457    -0.19000
C1313       C  0.10668043  0.65678728  0.05194294    -0.07500
C1314       C  0.11846993  0.66560583  0.05308646    -0.03500
C1315       C  0.11992171  0.67405952  0.06516058    -0.08900
C1316       C  0.10974766  0.67381522  0.07572729    -0.16500
H1317       H  0.06082924  0.67488510  0.13777110     0.11700
H1318       H  0.07916887  0.67600130  0.11986757     0.10900
H1319       H  0.05310724  0.65255330  0.09125842     0.10900
H1320       H  0.03457685  0.65145233  0.10900821     0.11400
H1321       H  0.08745797  0.64980972  0.06137660     0.11500
H1322       H  0.10513955  0.65019324  0.04280661     0.11400
H1323       H  0.12890469  0.68085842  0.06650963     0.11600
H1324       H  0.11102110  0.68044260  0.08490885     0.10400
C1325       C  0.16710745  0.55091242  0.88292919    -0.03400
C1326       C  0.17693188  0.56195481  0.88323988    -0.09200
C1327       C  0.17662568  0.57194795  0.89399819    -0.16800
C1328       C  0.16651567  0.57106842  0.90458346     0.25300
C1329       C  0.15669808  0.56016830  0.90440981    -0.18500
C1330       C  0.15697621  0.55015493  0.89366917    -0.07400
C1331       C  0.16620193  0.58138348  0.91559539    -0.13900
C1332       C  0.16599552  0.59010219  0.92476173    -0.13600
C1333       C  0.16581317  0.60056706  0.93563359     0.25200
C1334       C  0.15375627  0.60254392  0.94372821    -0.19000
C1335       C  0.15356707  0.61273394  0.95430248    -0.07500
C1336       C  0.16545440  0.62110035  0.95689278    -0.03500
C1337       C  0.17752514  0.61902129  0.94866594    -0.08900
C1338       C  0.17769067  0.60880858  0.93811282    -0.16500
H1339       H  0.18486675  0.56296276  0.87520245     0.11700
H1340       H  0.18427097  0.58037151  0.89404939     0.10900
H1341       H  0.14882503  0.55940472  0.91257712     0.10900
H1342       H  0.14925268  0.54184805  0.89387681     0.11400
H1343       H  0.14449279  0.59622859  0.94185022     0.11500
H1344       H  0.14405514  0.61411885  0.96031366     0.11400
H1345       H  0.18690061  0.62516308  0.95042808     0.11600
H1346       H  0.18708571  0.60733038  0.93190050     0.10400
C1347       C  0.27819557  0.79240240  0.00443093    -0.03400
C1348       C  0.27651995  0.78298188  0.01573836    -0.09200
C1349       C  0.26621247  0.77254994  0.01528240    -0.16800
C1350       C  0.25745006  0.77136668  0.00353877     0.25300
C1351       C  0.25904289  0.78062424  0.99221942    -0.18500
C1352       C  0.26933316  0.79107138  0.99264789    -0.07400
C1353       C  0.24686374  0.76062235  0.00309981    -0.13900
C1354       C  0.23811576  0.75149493  0.00284716    -0.13600
C1355       C  0.22789477  0.74039429  0.00271492     0.25200
C1356       C  0.21598997  0.74129051  0.01122367    -0.19000
C1357       C  0.20623606  0.73033015  0.01136700    -0.07500
C1358       C  0.20827004  0.71829657  0.00298665    -0.03500
C1359       C  0.22023895  0.71757631  0.99437731    -0.08900
C1360       C  0.22997417  0.72854991  0.99426096    -0.16500
H1361       H  0.28305141  0.78370122  0.02501392     0.11700
H1362       H  0.26506085  0.76542402  0.02410689     0.10900
H1363       H  0.25233891  0.77976361  0.98305164     0.10900
H1364       H  0.27035637  0.79800549  0.98368758     0.11400
H1365       H  0.21427637  0.75043208  0.01780064     0.11500
H1366       H  0.19712011  0.73135492  0.01802847     0.11400
H1367       H  0.22223644  0.70848893  0.98784867     0.11600
H1368       H  0.23918103  0.72774431  0.98765432     0.10400
loop_ 
_geom_bond_atom_site_label_1 
_geom_bond_atom_site_label_2 
_geom_bond_distance 
_geom_bond_site_symmetry_2 
_ccdc_geom_bond_type 
N1            N2   1.320   1_556  A
N1            C5   1.344       .  A
N1           Cu9   2.067       .  S
N2            C3   1.343       .  A
N2           Cu8   2.070       .  S
C3            C4   1.388       .  A
C3            H6   1.081       .  S
C4            C5   1.388   1_554  A
C4         C1358   1.484       .  S
C5            H7   1.081       .  S
Cu8          N11   2.070       .  S
Cu9          N19   2.067       .  S
Cu10         N12   2.071       .  S
Cu10         N18   2.070   1_554  S
N11          N12   1.320       .  A
N11          C15   1.343       .  A
N12          C13   1.344       .  A
C13          C14   1.388       .  A
C13          H16   1.081       .  S
C14          C15   1.387       .  A
C14        C1314   1.484       .  S
C15          H17   1.081       .  S
N18          N19   1.321       .  A
N18          C22   1.343       .  A
N19          C20   1.343       .  A
C20          C21   1.386       .  A
C20          H23   1.081       .  S
C21          C22   1.386       .  A
C21        C1336   1.481       .  S
C22          H24   1.081       .  S
N25          N26   1.321   1_554  A
N25          C29   1.345       .  A
N25         Cu33   2.074       .  S
N26          C27   1.343       .  A
N26         Cu32   2.072       .  S
C27          C28   1.387   1_556  A
C27          H30   1.081       .  S
C28          C29   1.388       .  A
C28        C1347   1.485       .  S
C29          H31   1.081       .  S
Cu32         N35   2.072       .  S
Cu33         N43   2.074       .  S
Cu34         N36   2.072   1_554  S
Cu34         N42   2.072       .  S
N35          N36   1.320       .  A
N35          C39   1.344       .  A
N36          C37   1.344       .  A
C37          C38   1.389       .  A
C37          H40   1.081       .  S
C38          C39   1.388       .  A
C38        C1270   1.487       .  S
C39          H41   1.081       .  S
N42          N43   1.321       .  A
N42          C46   1.343       .  A
N43          C44   1.345       .  A
C44          C45   1.389       .  A
C44          H47   1.081       .  S
C45          C46   1.388       .  A
C45        C1281   1.487       .  S
C46          H48   1.081       .  S
N49          N50   1.321   1_545  A
N49          C53   1.345       .  A
N49         Cu57   2.072       .  S
N50          C51   1.343       .  A
N50         Cu56   2.070       .  S
C51          C52   1.386   1_565  A
C51          H54   1.081       .  S
C52          C53   1.387       .  A
C52        C1237   1.482       .  S
C53          H55   1.081       .  S
Cu56         N59   2.070       .  S
Cu57         N67   2.072       .  S
Cu58         N60   2.074   1_545  S
Cu58         N66   2.074       .  S
N59          N60   1.320       .  A
N59          C63   1.344       .  A
N60          C61   1.345       .  A
C61          C62   1.389       .  A
C61          H64   1.081       .  S
C62          C63   1.387       .  A
C62        C1259   1.486       .  S
C63          H65   1.081       .  S
N66          N67   1.321       .  A
N66          C70   1.343       .  A
N67          C68   1.344       .  A
C68          C69   1.387       .  A
C68          H71   1.081       .  S
C69          C70   1.387       .  A
C69        C1215   1.484       .  S
C70          H72   1.081       .  S
N73          N74   1.320   1_545  A
N73          C77   1.344       .  A
N73         Cu81   2.072       .  S
N74          C75   1.343       .  A
N74         Cu80   2.069       .  S
C75          C76   1.388   1_565  A
C75          H78   1.081       .  S
C76          C77   1.389       .  A
C76        C1248   1.487       .  S
C77          H79   1.081       .  S
Cu80         N83   2.069       .  S
Cu81         N91   2.072       .  S
Cu82         N84   2.070   1_545  S
Cu82         N90   2.070       .  S
N83          N84   1.320       .  A
N83          C87   1.343       .  A
N84          C85   1.344       .  A
C85          C86   1.388       .  A
C85          H88   1.081       .  S
C86          C87   1.388       .  A
C86        C1193   1.485       .  S
C87          H89   1.081       .  S
N90          N91   1.321       .  A
N90          C94   1.343       .  A
N91          C92   1.344       .  A
C92          C93   1.388       .  A
C92          H95   1.081       .  S
C93          C94   1.387       .  A
C93        C1171   1.485       .  S
C94          H96   1.081       .  S
N97          N98   1.321       .  A
N97         C101   1.344       .  A
N97        Cu105   2.072       .  S
N98          C99   1.344       .  A
N98        Cu104   2.073       .  S
C99         C100   1.389       .  A
C99         H102   1.081       .  S
C100        C101   1.388       .  A
C100       C1160   1.486       .  S
C101        H103   1.081       .  S
Cu104       N107   2.073       .  S
Cu105       N115   2.072       .  S
Cu106       N108   2.066       .  S
Cu106       N114   2.066       .  S
N107        N108   1.321       .  A
N107        C111   1.344       .  A
N108        C109   1.343       .  A
C109        C110   1.386       .  A
C109        H112   1.081       .  S
C110        C111   1.388       .  A
C110       C1127   1.483       .  S
C111        H113   1.081       .  S
N114        N115   1.321       .  A
N114        C118   1.343       .  A
N115        C116   1.344       .  A
C116        C117   1.387       .  A
C116        H119   1.081       .  S
C117        C118   1.386       .  A
C117       C1204   1.482       .  S
C118        H120   1.081       .  S
N121        N122   1.321       .  A
N121        C125   1.345       .  A
N121       Cu129   2.074       .  S
N122        C123   1.343       .  A
N122       Cu128   2.074       .  S
C123        C124   1.388       .  A
C123        H126   1.081       .  S
C124        C125   1.389       .  A
C124       C1149   1.488       .  S
C125        H127   1.081       .  S
Cu128       N131   2.074       .  S
Cu129       N139   2.074       .  S
Cu130       N132   2.072       .  S
Cu130       N138   2.072       .  S
N131        N132   1.321       .  A
N131        C135   1.345       .  A
N132        C133   1.344       .  A
C133        C134   1.387       .  A
C133        H136   1.081       .  S
C134        C135   1.388       .  A
C134       C1083   1.484       .  S
C135        H137   1.081       .  S
N138        N139   1.321       .  A
N138        C142   1.344       .  A
N139        C140   1.344       .  A
C140        C141   1.389       .  A
C140        H143   1.081       .  S
C141        C142   1.388       .  A
C141       C1116   1.487       .  S
C142        H144   1.081       .  S
N145        N146   1.321   1_554  A
N145        C149   1.345       .  A
N145       Cu153   2.080       .  S
N146        C147   1.342       .  A
N146       Cu152   2.063       .  S
C147        C148   1.386       .  A
C147        H150   1.081       .  S
C148        C149   1.390   1_556  A
C148       C1072   1.486       .  S
C149        H151   1.081       .  S
Cu152       N155   2.063       .  S
Cu153       N163   2.081       .  S
Cu154       N156   2.075       .  S
Cu154       N162   2.076   1_556  S
N155        N156   1.320       .  A
N155        C159   1.343       .  A
N156        C157   1.345       .  A
C157        C158   1.388       .  A
C157        H160   1.081       .  S
C158        C159   1.386       .  A
C158       C1039   1.483       .  S
C159        H161   1.081       .  S
N162        N163   1.322       .  A
N162        C166   1.344       .  A
N163        C164   1.346       .  A
C164        C165   1.389       .  A
C164        H167   1.081       .  S
C165        C166   1.388       .  A
C165       C1017   1.488       .  S
C166        H168   1.081       .  S
N169        N170   1.321   1_554  A
N169        C173   1.343       .  A
N169       Cu177   2.068       .  S
N170        C171   1.344       .  A
N170       Cu176   2.073       .  S
C171        C172   1.387       .  A
C171        H174   1.081       .  S
C172        C173   1.387   1_556  A
C172       C1061   1.483       .  S
C173        H175   1.081       .  S
Cu176       N179   2.073       .  S
Cu177       N187   2.068       .  S
Cu178       N180   2.069       .  S
Cu178       N186   2.069   1_556  S
N179        N180   1.321       .  A
N179        C183   1.344       .  A
N180        C181   1.343       .  A
C181        C182   1.388       .  A
C181        H184   1.081       .  S
C182        C183   1.389       .  A
C182        C973   1.486       .  S
C183        H185   1.081       .  S
N186        N187   1.320       .  A
N186        C190   1.343       .  A
N187        C188   1.343       .  A
C188        C189   1.388       .  A
C188        H191   1.081       .  S
C189        C190   1.388       .  A
C189       C1006   1.484       .  S
C190        H192   1.081       .  S
N193        N194   1.321       .  A
N193        C197   1.345       .  A
N193       Cu201   2.074       .  S
N194        C195   1.345   1_565  A
N194       Cu200   2.079   1_565  S
C195        C196   1.390   1_545  A
C195        H198   1.081       .  S
C196        C197   1.389       .  A
C196        C951   1.489       .  S
C197        H199   1.081       .  S
Cu200       N203   2.079       .  S
Cu201       N211   2.074       .  S
Cu202       N204   2.079   1_565  S
Cu202       N210   2.079       .  S
N203        N204   1.321       .  A
N203        C207   1.346       .  A
N204        C205   1.345       .  A
C205        C206   1.389       .  A
C205        H208   1.081       .  S
C206        C207   1.390       .  A
C206       C1028   1.490       .  S
C207        H209   1.081       .  S
N210        N211   1.321       .  A
N210        C214   1.345       .  A
N211        C212   1.344       .  A
C212        C213   1.388       .  A
C212        H215   1.081       .  S
C213        C214   1.389       .  A
C213        C929   1.488       .  S
C214        H216   1.081       .  S
N217        N218   1.321       .  A
N217        C221   1.345       .  A
N217       Cu225   2.075       .  S
N218        C219   1.344       .  A
N218       Cu224   2.071   1_565  S
C219        C220   1.387       .  A
C219        H222   1.081   1_565  S
C220        C221   1.388       .  A
C220        C962   1.485       .  S
C221        H223   1.081       .  S
Cu224       N227   2.071       .  S
Cu225       N235   2.074       .  S
Cu226       N228   2.069   1_565  S
Cu226       N234   2.069       .  S
N227        N228   1.320       .  A
N227        C231   1.343       .  A
N228        C229   1.344       .  A
C229        C230   1.388       .  A
C229        H232   1.081       .  S
C230        C231   1.388       .  A
C230        C907   1.485       .  S
C231        H233   1.081       .  S
N234        N235   1.321       .  A
N234        C238   1.343       .  A
N235        C236   1.344       .  A
C236        C237   1.389       .  A
C236        H239   1.081       .  S
C237        C238   1.388       .  A
C237        C885   1.486       .  S
C238        H240   1.081       .  S
N241        N242   1.321       .  A
N241        C245   1.345       .  A
N241       Cu249   2.078       .  S
N242        C243   1.345       .  A
N242       Cu248   2.074       .  S
C243        C244   1.388       .  A
C243        H246   1.081       .  S
C244        C245   1.389       .  A
C244        C863   1.487       .  S
C245        H247   1.081       .  S
Cu248       N251   2.074       .  S
Cu249       N259   2.078       .  S
Cu250       N252   2.071       .  S
Cu250       N258   2.071       .  S
N251        N252   1.320       .  A
N251        C255   1.344       .  A
N252        C253   1.344       .  A
C253        C254   1.388       .  A
C253        H256   1.081       .  S
C254        C255   1.389       .  A
C254       C1292   1.486       .  S
C255        H257   1.081       .  S
N258        N259   1.321       .  A
N258        C262   1.344       .  A
N259        C260   1.346       .  A
C260        C261   1.390       .  A
C260        H263   1.081       .  S
C261        C262   1.388       .  A
C261        C940   1.488       .  S
C262        H264   1.081       .  S
N265        N266   1.322       .  A
N265        C269   1.344       .  A
N265       Cu273   2.072       .  S
N266        C267   1.346       .  A
N266       Cu272   2.081       .  S
C267        C268   1.389       .  A
C267        H270   1.081       .  S
C268        C269   1.387       .  A
C268        C874   1.486       .  S
C269        H271   1.081       .  S
Cu272       N275   2.081       .  S
Cu273       N283   2.072       .  S
Cu274       N276   2.071       .  S
Cu274       N282   2.070       .  S
N275        N276   1.321       .  A
N275        C279   1.346       .  A
N276        C277   1.344       .  A
C277        C278   1.388       .  A
C277        H280   1.081       .  S
C278        C279   1.390       .  A
C278        C841   1.489       .  S
C279        H281   1.081       .  S
N282        N283   1.320       .  A
N282        C286   1.344       .  A
N283        C284   1.344       .  A
C284        C285   1.388       .  A
C284        H287   1.081       .  S
C285        C286   1.388       .  A
C285       C1105   1.485       .  S
C286        H288   1.081       .  S
N289        N290   1.320   1_455  A
N289        C293   1.342       .  A
N289       Cu297   2.066       .  S
N290        C291   1.344       .  A
N290       Cu296   2.070       .  S
C291        C292   1.388       .  A
C291        H294   1.081       .  S
C292        C293   1.387   1_655  A
C292        C819   1.484       .  S
C293        H295   1.081       .  S
Cu296       N299   2.070       .  S
Cu297       N307   2.066       .  S
Cu298       N300   2.075       .  S
Cu298       N306   2.075   1_655  S
N299        N300   1.321       .  A
N299        C303   1.343       .  A
N300        C301   1.344       .  A
C301        C302   1.388       .  A
C301        H304   1.081       .  S
C302        C303   1.387       .  A
C302        C797   1.485       .  S
C303        H305   1.081       .  S
N306        N307   1.321       .  A
N306        C310   1.345       .  A
N307        C308   1.343       .  A
C308        C309   1.386       .  A
C308        H311   1.081       .  S
C309        C310   1.388       .  A
C309       C1303   1.483       .  S
C310        H312   1.081       .  S
N313        N314   1.320   1_455  A
N313        C317   1.344       .  A
N313       Cu321   2.068       .  S
N314        C315   1.343       .  A
N314       Cu320   2.069       .  S
C315        C316   1.388       .  A
C315        H318   1.081       .  S
C316        C317   1.388   1_655  A
C316        C830   1.486       .  S
C317        H319   1.081       .  S
Cu320       N323   2.069       .  S
Cu321       N331   2.068       .  S
Cu322       N324   2.069       .  S
Cu322       N330   2.069   1_655  S
N323        N324   1.320       .  A
N323        C327   1.343       .  A
N324        C325   1.344       .  A
C325        C326   1.388       .  A
C325        H328   1.081       .  S
C326        C327   1.388       .  A
C326        C896   1.485       .  S
C327        H329   1.081       .  S
N330        N331   1.321       .  A
N330        C334   1.343       .  A
N331        C332   1.343       .  A
C332        C333   1.387       .  A
C332        H335   1.081       .  S
C333        C334   1.387       .  A
C333       C1138   1.483       .  S
C334        H336   1.081       .  S
N337        N338   1.321       .  A
N337        C341   1.343       .  A
N337       Cu345   2.069       .  S
N338        C339   1.345       .  A
N338       Cu344   2.075       .  S
C339        C340   1.390       .  A
C339        H342   1.081       .  S
C340        C341   1.388       .  A
C340        C786   1.487       .  S
C341        H343   1.081       .  S
Cu344       N347   2.075       .  S
Cu345       N355   2.069       .  S
Cu346       N348   2.069       .  S
Cu346       N354   2.069       .  S
N347        N348   1.321       .  A
N347        C351   1.344       .  A
N348        C349   1.344       .  A
C349        C350   1.386       .  A
C349        H352   1.081       .  S
C350        C351   1.387       .  A
C350        C995   1.483       .  S
C351        H353   1.081       .  S
N354        N355   1.320       .  A
N354        C358   1.343       .  A
N355        C356   1.343       .  A
C356        C357   1.388       .  A
C356        H359   1.081       .  S
C357        C358   1.389       .  A
C357        C808   1.486       .  S
C358        H360   1.081       .  S
N361        N362   1.321       .  A
N361        C365   1.344       .  A
N361       Cu369   2.071       .  S
N362        C363   1.345       .  A
N362       Cu368   2.074       .  S
C363        C364   1.388       .  A
C363        H366   1.081       .  S
C364        C365   1.387       .  A
C364        C775   1.484       .  S
C365        H367   1.081       .  S
Cu368       N371   2.074       .  S
Cu369       N379   2.071       .  S
Cu370       N372   2.078       .  S
Cu370       N378   2.078       .  S
N371        N372   1.322       .  A
N371        C375   1.344       .  A
N372        C373   1.345       .  A
C373        C374   1.387       .  A
C373        H376   1.081       .  S
C374        C375   1.386       .  A
C374        C852   1.484       .  S
C375        H377   1.081       .  S
N378        N379   1.321       .  A
N378        C382   1.345       .  A
N379        C380   1.344       .  A
C380        C381   1.387       .  A
C380        H383   1.081       .  S
C381        C382   1.389       .  A
C381        C753   1.487       .  S
C382        H384   1.081       .  S
N385        N386   1.321       .  A
N385        C389   1.343       .  A
N385       Cu393   2.071       .  S
N386        C387   1.345       .  A
N386       Cu392   2.075       .  S
C387        C388   1.388       .  A
C387        H390   1.081       .  S
C388        C389   1.387       .  A
C388        C731   1.485       .  S
C389        H391   1.081       .  S
Cu392       N395   2.075       .  S
Cu393       N403   2.071       .  S
Cu394       N396   2.066       .  S
Cu394       N402   2.065       .  S
N395        N396   1.321       .  A
N395        C399   1.344       .  A
N396        C397   1.342       .  A
C397        C398   1.387       .  A
C397        H400   1.081       .  S
C398        C399   1.389       .  A
C398       C1325   1.485       .  S
C399        H401   1.081       .  S
N402        N403   1.320       .  A
N402        C406   1.344       .  A
N403        C404   1.343       .  A
C404        C405   1.388       .  A
C404        H407   1.081       .  S
C405        C406   1.387       .  A
C405        C709   1.483       .  S
C406        H408   1.081       .  S
N409        N410   1.320       .  A
N409        C413   1.344       .  A
N409       Cu417   2.075       .  S
N410        C411   1.344       .  A
N410       Cu416   2.070       .  S
C411        C412   1.388       .  A
C411        H414   1.081       .  S
C412        C413   1.389       .  A
C412        C742   1.488       .  S
C413        H415   1.081       .  S
Cu416       N419   2.070       .  S
Cu417       N427   2.076       .  S
Cu418       N420   2.077       .  S
Cu418       N426   2.077       .  S
N419        N420   1.321       .  A
N419        C423   1.343       .  A
N420        C421   1.345       .  A
C421        C422   1.390       .  A
C421        H424   1.081       .  S
C422        C423   1.388       .  A
C422        C698   1.487       .  S
C423        H425   1.081       .  S
N426        N427   1.321       .  A
N426        C430   1.345       .  A
N427        C428   1.344       .  A
C428        C429   1.389       .  A
C428        H431   1.081       .  S
C429        C430   1.389       .  A
C429       C1094   1.488       .  S
C430        H432   1.081       .  S
N433        N434   1.320       .  A
N433        C437   1.344       .  A
N433       Cu441   2.072       .  S
N434        C435   1.343       .  A
N434       Cu440   2.065       .  S
C435        C436   1.388       .  A
C435        H438   1.081       .  S
C436        C437   1.389       .  A
C436        C676   1.485       .  S
C437        H439   1.081       .  S
Cu440       N443   2.065       .  S
Cu441       N451   2.072       .  S
Cu442       N444   2.073       .  S
Cu442       N450   2.073       .  S
N443        N444   1.320       .  A
N443        C447   1.342       .  A
N444        C445   1.345       .  A
C445        C446   1.389       .  A
C445        H448   1.081       .  S
C446        C447   1.387       .  A
C446       C1226   1.485       .  S
C447        H449   1.081       .  S
N450        N451   1.321       .  A
N450        C454   1.344       .  A
N451        C452   1.344       .  A
C452        C453   1.388       .  A
C452        H455   1.081       .  S
C453        C454   1.389       .  A
C453       C1050   1.487       .  S
C454        H456   1.081       .  S
N457        N458   1.321       .  A
N457        C461   1.342       .  A
N457       Cu465   2.068       .  S
N458        C459   1.345       .  A
N458       Cu464   2.078       .  S
C459        C460   1.390       .  A
C459        H462   1.081       .  S
C460        C461   1.387       .  A
C460        C665   1.487       .  S
C461        H463   1.081       .  S
Cu464       N467   2.078       .  S
Cu465       N475   2.067       .  S
Cu466       N468   2.070       .  S
Cu466       N474   2.070       .  S
N467        N468   1.322       .  A
N467        C471   1.345       .  A
N468        C469   1.344       .  A
C469        C470   1.385       .  A
C469        H472   1.081       .  S
C470        C471   1.388       .  A
C470        C643   1.483       .  S
C471        H473   1.082       .  S
N474        N475   1.320       .  A
N474        C478   1.343       .  A
N475        C476   1.344       .  A
C476        C477   1.388       .  A
C476        H479   1.081       .  S
C477        C478   1.388       .  A
C477        C687   1.485       .  S
C478        H480   1.081       .  S
N481        N482   1.321       .  A
N481        C485   1.344       .  A
N481       Cu489   2.073       .  S
N482        C483   1.343       .  A
N482       Cu488   2.067       .  S
C483        C484   1.386       .  A
C483        H486   1.081       .  S
C484        C485   1.388       .  A
C484        C621   1.483       .  S
C485        H487   1.081       .  S
Cu488       N491   2.067       .  S
Cu489       N499   2.074       .  S
Cu490       N492   2.073       .  S
Cu490       N498   2.073       .  S
N491        N492   1.320       .  A
N491        C495   1.343       .  A
N492        C493   1.345       .  A
C493        C494   1.389       .  A
C493        H496   1.081       .  S
C494        C495   1.387       .  A
C494        C599   1.485       .  S
C495        H497   1.081       .  S
N498        N499   1.321       .  A
N498        C502   1.344       .  A
N499        C500   1.344       .  A
C500        C501   1.389       .  A
C500        H503   1.081       .  S
C501        C502   1.388       .  A
C501        C918   1.487       .  S
C502        H504   1.081       .  S
N505        N506   1.321       .  A
N505        C509   1.342       .  A
N505       Cu513   2.065       .  S
N506        C507   1.345       .  A
N506       Cu512   2.076       .  S
C507        C508   1.389       .  A
C507        H510   1.081       .  S
C508        C509   1.386       .  A
C508        C632   1.484       .  S
C509        H511   1.081       .  S
Cu512       N515   2.076       .  S
Cu513       N523   2.065       .  S
Cu514       N516   2.077       .  S
Cu514       N522   2.077       .  S
N515        N516   1.321       .  A
N515        C519   1.344       .  A
N516        C517   1.344       .  A
C517        C518   1.389       .  A
C517        H520   1.081       .  S
C518        C519   1.389       .  A
C518        C654   1.489       .  S
C519        H521   1.081       .  S
N522        N523   1.320       .  A
N522        C526   1.345       .  A
N523        C524   1.343       .  A
C524        C525   1.386       .  A
C524        H527   1.081       .  S
C525        C526   1.389       .  A
C525        C764   1.485       .  S
C526        H528   1.081       .  S
N529        N530   1.320       .  A
N529        C533   1.344       .  A
N529       Cu537   2.069       .  S
N530        C531   1.344   1_455  A
N530       Cu536   2.075   1_455  S
C531        C532   1.390   1_655  A
C531        H534   1.081       .  S
C532        C533   1.389       .  A
C532        C577   1.488       .  S
C533        H535   1.081       .  S
Cu536       N539   2.075       .  S
Cu537       N547   2.069       .  S
Cu538       N540   2.073   1_455  S
Cu538       N546   2.073       .  S
N539        N540   1.321       .  A
N539        C543   1.344       .  A
N540        C541   1.345       .  A
C541        C542   1.388       .  A
C541        H544   1.081       .  S
C542        C543   1.388       .  A
C542        C610   1.486       .  S
C543        H545   1.081       .  S
N546        N547   1.321       .  A
N546        C550   1.344       .  A
N547        C548   1.343       .  A
C548        C549   1.388       .  A
C548        H551   1.081       .  S
C549        C550   1.389       .  A
C549       C1182   1.486       .  S
C550        H552   1.081       .  S
N553        N554   1.321   1_655  A
N553        C557   1.345       .  A
N553       Cu561   2.077       .  S
N554        C555   1.344       .  A
N554       Cu560   2.071       .  S
C555        C556   1.386       .  A
C555        H558   1.081       .  S
C556        C557   1.388   1_455  A
C556        C588   1.483       .  S
C557        H559   1.081       .  S
Cu560       N563   2.071       .  S
Cu561       N571   2.077       .  S
Cu562       N564   2.070       .  S
Cu562       N570   2.071   1_455  S
N563        N564   1.320       .  A
N563        C567   1.344       .  A
N564        C565   1.343       .  A
C565        C566   1.389       .  A
C565        H568   1.081       .  S
C566        C567   1.389       .  A
C566        C720   1.487       .  S
C567        H569   1.081       .  S
N570        N571   1.321       .  A
N570        C574   1.344       .  A
N571        C572   1.344       .  A
C572        C573   1.388       .  A
C572        H575   1.081       .  S
C573        C574   1.386       .  A
C573        C984   1.484       .  S
C574        H576   1.081       .  S
C577        C578   1.409       .  A
C577        C582   1.409   1_455  A
C578        C579   1.399       .  A
C578        H591   1.081       .  S
C579        C580   1.399       .  A
C579        H592   1.084       .  S
C580        C581   1.398   1_455  A
C580        C583   1.441       .  S
C581        C582   1.398       .  A
C581        H593   1.084       .  S
C582        H594   1.081       .  S
C583        C584   1.206       .  T
C584        C585   1.441       .  S
C585        C586   1.400   1_455  A
C585        C590   1.399       .  A
C586        C587   1.399       .  A
C586        H595   1.084       .  S
C587        C588   1.407   1_655  A
C587        H596   1.082       .  S
C588        C589   1.408       .  A
C589        C590   1.399       .  A
C589        H597   1.082       .  S
C590        H598   1.084       .  S
C599        C600   1.408       .  A
C599        C604   1.409       .  A
C600        C601   1.398       .  A
C600        H613   1.081       .  S
C601        C602   1.399       .  A
C601        H614   1.084       .  S
C602        C603   1.398       .  A
C602        C605   1.439       .  S
C603        C604   1.398       .  A
C603        H615   1.084       .  S
C604        H616   1.081       .  S
C605        C606   1.206       .  T
C606        C607   1.439       .  S
C607        C608   1.399       .  A
C607        C612   1.399       .  A
C608        C609   1.399       .  A
C608        H617   1.084       .  S
C609        C610   1.408       .  A
C609        H618   1.081       .  S
C610        C611   1.408       .  A
C611        C612   1.398       .  A
C611        H619   1.081       .  S
C612        H620   1.084       .  S
C621        C622   1.408       .  A
C621        C626   1.407       .  A
C622        C623   1.397       .  A
C622        H635   1.082       .  S
C623        C624   1.398       .  A
C623        H636   1.084       .  S
C624        C625   1.399       .  A
C624        C627   1.437       .  S
C625        C626   1.398       .  A
C625        H637   1.084       .  S
C626        H638   1.082       .  S
C627        C628   1.205       .  T
C628        C629   1.437       .  S
C629        C630   1.399       .  A
C629        C634   1.398       .  A
C630        C631   1.398       .  A
C630        H639   1.084       .  S
C631        C632   1.408       .  A
C631        H640   1.081       .  S
C632        C633   1.408       .  A
C633        C634   1.397       .  A
C633        H641   1.081       .  S
C634        H642   1.084       .  S
C643        C644   1.407       .  A
C643        C648   1.408       .  A
C644        C645   1.398       .  A
C644        H657   1.082       .  S
C645        C646   1.400       .  A
C645        H658   1.084       .  S
C646        C647   1.399       .  A
C646        C649   1.440       .  S
C647        C648   1.399       .  A
C647        H659   1.084       .  S
C648        H660   1.082       .  S
C649        C650   1.206       .  T
C650        C651   1.440       .  S
C651        C652   1.399       .  A
C651        C656   1.398       .  A
C652        C653   1.399       .  A
C652        H661   1.084       .  S
C653        C654   1.409       .  A
C653        H662   1.081       .  S
C654        C655   1.409       .  A
C655        C656   1.398       .  A
C655        H663   1.081       .  S
C656        H664   1.084       .  S
C665        C666   1.408       .  A
C665        C670   1.409       .  A
C666        C667   1.398       .  A
C666        H679   1.081       .  S
C667        C668   1.399       .  A
C667        H680   1.084       .  S
C668        C669   1.398       .  A
C668        C671   1.438       .  S
C669        C670   1.397       .  A
C669        H681   1.084       .  S
C670        H682   1.081       .  S
C671        C672   1.205       .  T
C672        C673   1.438       .  S
C673        C674   1.398       .  A
C673        C678   1.398       .  A
C674        C675   1.397       .  A
C674        H683   1.084       .  S
C675        C676   1.408       .  A
C675        H684   1.081       .  S
C676        C677   1.409       .  A
C677        C678   1.398       .  A
C677        H685   1.081       .  S
C678        H686   1.084       .  S
C687        C688   1.408       .  A
C687        C692   1.408       .  A
C688        C689   1.399       .  A
C688        H701   1.081       .  S
C689        C690   1.399       .  A
C689        H702   1.084       .  S
C690        C691   1.398       .  A
C690        C693   1.439       .  S
C691        C692   1.397       .  A
C691        H703   1.084       .  S
C692        H704   1.081       .  S
C693        C694   1.205       .  T
C694        C695   1.439       .  S
C695        C696   1.399       .  A
C695        C700   1.398       .  A
C696        C697   1.399       .  A
C696        H705   1.084       .  S
C697        C698   1.409       .  A
C697        H706   1.081       .  S
C698        C699   1.409       .  A
C699        C700   1.397       .  A
C699        H707   1.081       .  S
C700        H708   1.084       .  S
C709        C710   1.408       .  A
C709        C714   1.408       .  A
C710        C711   1.397       .  A
C710        H723   1.081       .  S
C711        C712   1.398       .  A
C711        H724   1.084       .  S
C712        C713   1.399       .  A
C712        C715   1.438       .  S
C713        C714   1.398       .  A
C713        H725   1.084       .  S
C714        H726   1.082       .  S
C715        C716   1.205       .  T
C716        C717   1.438       .  S
C717        C718   1.398       .  A
C717        C722   1.398       .  A
C718        C719   1.397       .  A
C718        H727   1.084       .  S
C719        C720   1.409       .  A
C719        H728   1.081       .  S
C720        C721   1.409       .  A
C721        C722   1.398       .  A
C721        H729   1.081       .  S
C722        H730   1.084       .  S
C731        C732   1.408       .  A
C731        C736   1.408       .  A
C732        C733   1.398       .  A
C732        H745   1.081       .  S
C733        C734   1.398       .  A
C733        H746   1.084       .  S
C734        C735   1.400       .  A
C734        C737   1.440       .  S
C735        C736   1.399       .  A
C735        H747   1.084       .  S
C736        H748   1.082       .  S
C737        C738   1.206       .  T
C738        C739   1.440       .  S
C739        C740   1.399       .  A
C739        C744   1.398       .  A
C740        C741   1.399       .  A
C740        H749   1.084       .  S
C741        C742   1.409       .  A
C741        H750   1.081       .  S
C742        C743   1.408       .  A
C743        C744   1.398       .  A
C743        H751   1.081       .  S
C744        H752   1.084       .  S
C753        C754   1.408       .  A
C753        C758   1.409       .  A
C754        C755   1.398       .  A
C754        H767   1.081       .  S
C755        C756   1.399       .  A
C755        H768   1.084       .  S
C756        C757   1.399       .  A
C756        C759   1.440       .  S
C757        C758   1.399       .  A
C757        H769   1.084       .  S
C758        H770   1.081       .  S
C759        C760   1.206       .  T
C760        C761   1.440       .  S
C761        C762   1.399       .  A
C761        C766   1.399       .  A
C762        C763   1.399       .  A
C762        H771   1.084       .  S
C763        C764   1.409       .  A
C763        H772   1.082       .  S
C764        C765   1.407       .  A
C765        C766   1.398       .  A
C765        H773   1.081       .  S
C766        H774   1.084       .  S
C775        C776   1.408       .  A
C775        C780   1.408       .  A
C776        C777   1.399       .  A
C776        H789   1.082       .  S
C777        C778   1.399       .  A
C777        H790   1.084       .  S
C778        C779   1.399       .  A
C778        C781   1.439       .  S
C779        C780   1.398       .  A
C779        H791   1.084       .  S
C780        H792   1.082       .  S
C781        C782   1.206       .  T
C782        C783   1.439       .  S
C783        C784   1.398       .  A
C783        C788   1.399       .  A
C784        C785   1.398       .  A
C784        H793   1.084       .  S
C785        C786   1.409       .  A
C785        H794   1.081       .  S
C786        C787   1.408       .  A
C787        C788   1.398       .  A
C787        H795   1.081       .  S
C788        H796   1.084       .  S
C797        C798   1.409       .  A
C797        C802   1.408       .  A
C798        C799   1.397       .  A
C798        H811   1.081       .  S
C799        C800   1.398       .  A
C799        H812   1.084       .  S
C800        C801   1.398       .  A
C800        C803   1.437       .  S
C801        C802   1.398       .  A
C801        H813   1.084       .  S
C802        H814   1.081       .  S
C803        C804   1.205       .  T
C804        C805   1.437       .  S
C805        C806   1.398       .  A
C805        C810   1.398       .  A
C806        C807   1.397       .  A
C806        H815   1.084       .  S
C807        C808   1.409       .  A
C807        H816   1.081       .  S
C808        C809   1.409       .  A
C809        C810   1.398       .  A
C809        H817   1.081       .  S
C810        H818   1.084       .  S
C819        C820   1.409   1_655  A
C819        C824   1.408       .  A
C820        C821   1.397       .  A
C820        H833   1.081       .  S
C821        C822   1.398   1_455  A
C821        H834   1.084       .  S
C822        C823   1.398       .  A
C822        C825   1.437       .  S
C823        C824   1.397       .  A
C823        H835   1.084       .  S
C824        H836   1.081       .  S
C825        C826   1.204       .  T
C826        C827   1.437       .  S
C827        C828   1.398   1_655  A
C827        C832   1.398       .  A
C828        C829   1.397       .  A
C828        H837   1.084       .  S
C829        C830   1.409   1_455  A
C829        H838   1.081       .  S
C830        C831   1.409       .  A
C831        C832   1.397       .  A
C831        H839   1.081       .  S
C832        H840   1.084       .  S
C841        C842   1.409       .  A
C841        C846   1.409       .  A
C842        C843   1.399       .  A
C842        H855   1.081       .  S
C843        C844   1.399       .  A
C843        H856   1.084       .  S
C844        C845   1.398       .  A
C844        C847   1.441       .  S
C845        C846   1.398       .  A
C845        H857   1.084       .  S
C846        H858   1.081       .  S
C847        C848   1.207       .  T
C848        C849   1.441       .  S
C849        C850   1.400       .  A
C849        C854   1.399       .  A
C850        C851   1.399       .  A
C850        H859   1.083       .  S
C851        C852   1.407       .  A
C851        H860   1.082       .  S
C852        C853   1.407       .  A
C853        C854   1.399       .  A
C853        H861   1.082       .  S
C854        H862   1.084       .  S
C863        C864   1.408       .  A
C863        C868   1.409       .  A
C864        C865   1.399       .  A
C864        H877   1.081       .  S
C865        C866   1.399       .  A
C865        H878   1.084       .  S
C866        C867   1.399       .  A
C866        C869   1.441       .  S
C867        C868   1.399       .  A
C867        H879   1.084       .  S
C868        H880   1.081       .  S
C869        C870   1.207       .  T
C870        C871   1.441       .  S
C871        C872   1.399       .  A
C871        C876   1.400       .  A
C872        C873   1.398       .  A
C872        H881   1.084       .  S
C873        C874   1.408       .  A
C873        H882   1.081       .  S
C874        C875   1.408       .  A
C875        C876   1.400       .  A
C875        H883   1.082       .  S
C876        H884   1.083       .  S
C885        C886   1.409       .  A
C885        C890   1.409       .  A
C886        C887   1.397       .  A
C886        H899   1.081       .  S
C887        C888   1.398       .  A
C887        H900   1.084       .  S
C888        C889   1.398       .  A
C888        C891   1.437       .  S
C889        C890   1.398       .  A
C889        H901   1.084       .  S
C890        H902   1.081       .  S
C891        C892   1.205       .  T
C892        C893   1.437       .  S
C893        C894   1.398       .  A
C893        C898   1.398       .  A
C894        C895   1.397       .  A
C894        H903   1.084       .  S
C895        C896   1.408       .  A
C895        H904   1.081       .  S
C896        C897   1.408       .  A
C897        C898   1.398       .  A
C897        H905   1.081       .  S
C898        H906   1.084       .  S
C907        C908   1.408       .  A
C907        C912   1.408       .  A
C908        C909   1.398       .  A
C908        H921   1.081       .  S
C909        C910   1.398       .  A
C909        H922   1.084       .  S
C910        C911   1.398       .  A
C910        C913   1.438       .  S
C911        C912   1.397       .  A
C911        H923   1.084       .  S
C912        H924   1.081       .  S
C913        C914   1.205       .  T
C914        C915   1.438       .  S
C915        C916   1.398       .  A
C915        C920   1.398       .  A
C916        C917   1.398       .  A
C916        H925   1.084       .  S
C917        C918   1.409       .  A
C917        H926   1.081       .  S
C918        C919   1.409       .  A
C919        C920   1.398       .  A
C919        H927   1.081       .  S
C920        H928   1.084       .  S
C929        C930   1.409       .  A
C929        C934   1.409       .  A
C930        C931   1.399       .  A
C930        H943   1.081       .  S
C931        C932   1.399       .  A
C931        H944   1.084       .  S
C932        C933   1.399       .  A
C932        C935   1.441       .  S
C933        C934   1.400       .  A
C933        H945   1.084       .  S
C934        H946   1.081       .  S
C935        C936   1.207       .  T
C936        C937   1.441       .  S
C937        C938   1.399       .  A
C937        C942   1.399       .  A
C938        C939   1.399       .  A
C938        H947   1.084       .  S
C939        C940   1.409       .  A
C939        H948   1.081       .  S
C940        C941   1.408       .  A
C941        C942   1.399       .  A
C941        H949   1.081       .  S
C942        H950   1.084       .  S
C951        C952   1.409       .  A
C951        C956   1.409   1_565  A
C952        C953   1.399       .  A
C952        H965   1.081       .  S
C953        C954   1.399       .  A
C953        H966   1.084       .  S
C954        C955   1.398   1_565  A
C954        C957   1.441       .  S
C955        C956   1.399       .  A
C955        H967   1.084       .  S
C956        H968   1.081       .  S
C957        C958   1.207       .  T
C958        C959   1.441       .  S
C959        C960   1.399       .  A
C959        C964   1.399       .  A
C960        C961   1.398       .  A
C960        H969   1.084       .  S
C961        C962   1.408       .  A
C961        H970   1.082       .  S
C962        C963   1.408       .  A
C963        C964   1.399       .  A
C963        H971   1.082   1_565  S
C964        H972   1.083   1_565  S
C973        C974   1.409       .  A
C973        C978   1.408       .  A
C974        C975   1.398       .  A
C974        H987   1.081       .  S
C975        C976   1.398       .  A
C975        H988   1.084       .  S
C976        C977   1.399       .  A
C976        C979   1.439       .  S
C977        C978   1.398       .  A
C977        H989   1.084       .  S
C978        H990   1.081       .  S
C979        C980   1.205       .  T
C980        C981   1.439       .  S
C981        C982   1.398       .  A
C981        C986   1.399       .  A
C982        C983   1.397       .  A
C982        H991   1.084       .  S
C983        C984   1.407       .  A
C983        H992   1.082       .  S
C984        C985   1.408       .  A
C985        C986   1.399       .  A
C985        H993   1.082       .  S
C986        H994   1.084       .  S
C995        C996   1.408       .  A
C995       C1000   1.407       .  A
C996        C997   1.398       .  A
C996       H1009   1.082       .  S
C997        C998   1.399       .  A
C997       H1010   1.084       .  S
C998        C999   1.398       .  A
C998       C1001   1.437       .  S
C999       C1000   1.397       .  A
C999       H1011   1.084       .  S
C1000      H1012   1.082       .  S
C1001      C1002   1.204       .  T
C1002      C1003   1.437       .  S
C1003      C1004   1.398       .  A
C1003      C1008   1.398       .  A
C1004      C1005   1.397       .  A
C1004      H1013   1.084       .  S
C1005      C1006   1.408       .  A
C1005      H1014   1.081       .  S
C1006      C1007   1.408       .  A
C1007      C1008   1.397       .  A
C1007      H1015   1.081       .  S
C1008      H1016   1.084       .  S
C1017      C1018   1.409       .  A
C1017      C1022   1.409       .  A
C1018      C1019   1.399       .  A
C1018      H1031   1.081       .  S
C1019      C1020   1.399       .  A
C1019      H1032   1.084       .  S
C1020      C1021   1.400       .  A
C1020      C1023   1.443       .  S
C1021      C1022   1.401       .  A
C1021      H1033   1.083       .  S
C1022      H1034   1.081       .  S
C1023      C1024   1.208       .  T
C1024      C1025   1.444       .  S
C1025      C1026   1.399       .  A
C1025      C1030   1.399       .  A
C1026      C1027   1.400       .  A
C1026      H1035   1.083       .  S
C1027      C1028   1.409       .  A
C1027      H1036   1.081       .  S
C1028      C1029   1.409       .  A
C1029      C1030   1.400       .  A
C1029      H1037   1.081       .  S
C1030      H1038   1.084       .  S
C1039      C1040   1.407       .  A
C1039      C1044   1.408       .  A
C1040      C1041   1.398       .  A
C1040      H1053   1.082       .  S
C1041      C1042   1.399       .  A
C1041      H1054   1.084       .  S
C1042      C1043   1.398       .  A
C1042      C1045   1.438       .  S
C1043      C1044   1.398       .  A
C1043      H1055   1.084       .  S
C1044      H1056   1.082       .  S
C1045      C1046   1.205       .  T
C1046      C1047   1.438       .  S
C1047      C1048   1.398       .  A
C1047      C1052   1.398       .  A
C1048      C1049   1.398       .  A
C1048      H1057   1.084       .  S
C1049      C1050   1.409       .  A
C1049      H1058   1.081       .  S
C1050      C1051   1.409       .  A
C1051      C1052   1.398       .  A
C1051      H1059   1.081       .  S
C1052      H1060   1.084       .  S
C1061      C1062   1.408   1_556  A
C1061      C1066   1.408       .  A
C1062      C1063   1.397       .  A
C1062      H1075   1.081       .  S
C1063      C1064   1.398   1_554  A
C1063      H1076   1.084       .  S
C1064      C1065   1.398       .  A
C1064      C1067   1.437       .  S
C1065      C1066   1.397       .  A
C1065      H1077   1.084       .  S
C1066      H1078   1.081       .  S
C1067      C1068   1.204       .  T
C1068      C1069   1.437       .  S
C1069      C1070   1.398   1_556  A
C1069      C1074   1.398       .  A
C1070      C1071   1.397       .  A
C1070      H1079   1.084       .  S
C1071      C1072   1.408   1_554  A
C1071      H1080   1.081       .  S
C1072      C1073   1.410       .  A
C1073      C1074   1.398       .  A
C1073      H1081   1.081       .  S
C1074      H1082   1.084       .  S
C1083      C1084   1.408       .  A
C1083      C1088   1.408       .  A
C1084      C1085   1.399       .  A
C1084      H1097   1.082       .  S
C1085      C1086   1.400       .  A
C1085      H1098   1.084       .  S
C1086      C1087   1.399       .  A
C1086      C1089   1.441       .  S
C1087      C1088   1.398       .  A
C1087      H1099   1.084       .  S
C1088      H1100   1.082       .  S
C1089      C1090   1.207       .  T
C1090      C1091   1.441       .  S
C1091      C1092   1.399       .  A
C1091      C1096   1.399       .  A
C1092      C1093   1.399       .  A
C1092      H1101   1.084       .  S
C1093      C1094   1.409       .  A
C1093      H1102   1.081       .  S
C1094      C1095   1.409       .  A
C1095      C1096   1.399       .  A
C1095      H1103   1.081       .  S
C1096      H1104   1.084       .  S
C1105      C1106   1.408       .  A
C1105      C1110   1.408       .  A
C1106      C1107   1.398       .  A
C1106      H1119   1.081       .  S
C1107      C1108   1.398       .  A
C1107      H1120   1.084       .  S
C1108      C1109   1.399       .  A
C1108      C1111   1.439       .  S
C1109      C1110   1.398       .  A
C1109      H1121   1.084       .  S
C1110      H1122   1.081       .  S
C1111      C1112   1.205       .  T
C1112      C1113   1.439       .  S
C1113      C1114   1.398       .  A
C1113      C1118   1.398       .  A
C1114      C1115   1.397       .  A
C1114      H1123   1.084       .  S
C1115      C1116   1.408       .  A
C1115      H1124   1.081       .  S
C1116      C1117   1.409       .  A
C1117      C1118   1.399       .  A
C1117      H1125   1.081       .  S
C1118      H1126   1.084       .  S
C1127      C1128   1.408       .  A
C1127      C1132   1.408       .  A
C1128      C1129   1.397       .  A
C1128      H1141   1.081       .  S
C1129      C1130   1.398       .  A
C1129      H1142   1.084       .  S
C1130      C1131   1.398       .  A
C1130      C1133   1.435       .  S
C1131      C1132   1.397       .  A
C1131      H1143   1.084       .  S
C1132      H1144   1.081       .  S
C1133      C1134   1.203       .  T
C1134      C1135   1.435       .  S
C1135      C1136   1.398       .  A
C1135      C1140   1.398       .  A
C1136      C1137   1.397       .  A
C1136      H1145   1.084       .  S
C1137      C1138   1.408       .  A
C1137      H1146   1.081       .  S
C1138      C1139   1.408       .  A
C1139      C1140   1.397       .  A
C1139      H1147   1.081       .  S
C1140      H1148   1.084       .  S
C1149      C1150   1.409       .  A
C1149      C1154   1.409       .  A
C1150      C1151   1.400       .  A
C1150      H1163   1.081       .  S
C1151      C1152   1.399       .  A
C1151      H1164   1.084       .  S
C1152      C1153   1.398       .  A
C1152      C1155   1.440       .  S
C1153      C1154   1.397       .  A
C1153      H1165   1.084       .  S
C1154      H1166   1.081       .  S
C1155      C1156   1.206       .  T
C1156      C1157   1.439       .  S
C1157      C1158   1.398       .  A
C1157      C1162   1.399       .  A
C1158      C1159   1.397       .  A
C1158      H1167   1.084       .  S
C1159      C1160   1.408       .  A
C1159      H1168   1.081       .  S
C1160      C1161   1.409       .  A
C1161      C1162   1.400       .  A
C1161      H1169   1.081       .  S
C1162      H1170   1.084       .  S
C1171      C1172   1.408       .  A
C1171      C1176   1.408       .  A
C1172      C1173   1.397       .  A
C1172      H1185   1.081       .  S
C1173      C1174   1.398       .  A
C1173      H1186   1.084       .  S
C1174      C1175   1.398       .  A
C1174      C1177   1.437       .  S
C1175      C1176   1.398       .  A
C1175      H1187   1.084       .  S
C1176      H1188   1.081       .  S
C1177      C1178   1.204       .  T
C1178      C1179   1.437       .  S
C1179      C1180   1.398       .  A
C1179      C1184   1.398       .  A
C1180      C1181   1.397       .  A
C1180      H1189   1.084       .  S
C1181      C1182   1.409       .  A
C1181      H1190   1.081       .  S
C1182      C1183   1.408       .  A
C1183      C1184   1.398       .  A
C1183      H1191   1.081       .  S
C1184      H1192   1.084       .  S
C1193      C1194   1.408       .  A
C1193      C1198   1.408       .  A
C1194      C1195   1.398       .  A
C1194      H1207   1.081       .  S
C1195      C1196   1.398       .  A
C1195      H1208   1.084       .  S
C1196      C1197   1.398       .  A
C1196      C1199   1.438       .  S
C1197      C1198   1.397       .  A
C1197      H1209   1.084       .  S
C1198      H1210   1.081       .  S
C1199      C1200   1.205       .  T
C1200      C1201   1.438       .  S
C1201      C1202   1.399       .  A
C1201      C1206   1.399       .  A
C1202      C1203   1.398       .  A
C1202      H1211   1.084       .  S
C1203      C1204   1.407       .  A
C1203      H1212   1.082       .  S
C1204      C1205   1.407       .  A
C1205      C1206   1.398       .  A
C1205      H1213   1.082       .  S
C1206      H1214   1.084       .  S
C1215      C1216   1.408       .  A
C1215      C1220   1.408       .  A
C1216      C1217   1.397       .  A
C1216      H1229   1.081       .  S
C1217      C1218   1.398       .  A
C1217      H1230   1.084       .  S
C1218      C1219   1.399       .  A
C1218      C1221   1.437       .  S
C1219      C1220   1.398       .  A
C1219      H1231   1.084       .  S
C1220      H1232   1.081       .  S
C1221      C1222   1.204       .  T
C1222      C1223   1.437       .  S
C1223      C1224   1.397       .  A
C1223      C1228   1.398       .  A
C1224      C1225   1.397       .  A
C1224      H1233   1.084       .  S
C1225      C1226   1.409       .  A
C1225      H1234   1.081       .  S
C1226      C1227   1.408       .  A
C1227      C1228   1.398       .  A
C1227      H1235   1.081       .  S
C1228      H1236   1.084       .  S
C1237      C1238   1.408   1_545  A
C1237      C1242   1.407       .  A
C1238      C1239   1.397       .  A
C1238      H1251   1.082       .  S
C1239      C1240   1.398   1_565  A
C1239      H1252   1.084       .  S
C1240      C1241   1.399       .  A
C1240      C1243   1.438       .  S
C1241      C1242   1.398       .  A
C1241      H1253   1.084       .  S
C1242      H1254   1.082       .  S
C1243      C1244   1.205       .  T
C1244      C1245   1.438       .  S
C1245      C1246   1.398   1_545  A
C1245      C1250   1.398       .  A
C1246      C1247   1.398       .  A
C1246      H1255   1.084       .  S
C1247      C1248   1.409   1_565  A
C1247      H1256   1.081       .  S
C1248      C1249   1.409       .  A
C1249      C1250   1.398       .  A
C1249      H1257   1.081       .  S
C1250      H1258   1.084       .  S
C1259      C1260   1.408       .  A
C1259      C1264   1.408       .  A
C1260      C1261   1.399       .  A
C1260      H1273   1.082       .  S
C1261      C1262   1.399       .  A
C1261      H1274   1.084       .  S
C1262      C1263   1.399       .  A
C1262      C1265   1.441       .  S
C1263      C1264   1.399       .  A
C1263      H1275   1.084       .  S
C1264      H1276   1.082       .  S
C1265      C1266   1.207       .  T
C1266      C1267   1.441       .  S
C1267      C1268   1.399       .  A
C1267      C1272   1.399       .  A
C1268      C1269   1.399       .  A
C1268      H1277   1.084       .  S
C1269      C1270   1.408       .  A
C1269      H1278   1.081       .  S
C1270      C1271   1.409       .  A
C1271      C1272   1.399       .  A
C1271      H1279   1.081       .  S
C1272      H1280   1.084       .  S
C1281      C1282   1.409       .  A
C1281      C1286   1.409       .  A
C1282      C1283   1.398       .  A
C1282      H1295   1.081       .  S
C1283      C1284   1.398       .  A
C1283      H1296   1.084       .  S
C1284      C1285   1.399       .  A
C1284      C1287   1.439       .  S
C1285      C1286   1.399       .  A
C1285      H1297   1.084       .  S
C1286      H1298   1.081       .  S
C1287      C1288   1.205       .  T
C1288      C1289   1.439       .  S
C1289      C1290   1.398       .  A
C1289      C1294   1.399       .  A
C1290      C1291   1.398       .  A
C1290      H1299   1.084       .  S
C1291      C1292   1.408       .  A
C1291      H1300   1.081       .  S
C1292      C1293   1.409       .  A
C1293      C1294   1.399       .  A
C1293      H1301   1.081       .  S
C1294      H1302   1.084       .  S
C1303      C1304   1.408       .  A
C1303      C1308   1.407       .  A
C1304      C1305   1.398       .  A
C1304      H1317   1.082       .  S
C1305      C1306   1.398       .  A
C1305      H1318   1.084       .  S
C1306      C1307   1.399       .  A
C1306      C1309   1.439       .  S
C1307      C1308   1.398       .  A
C1307      H1319   1.084       .  S
C1308      H1320   1.082       .  S
C1309      C1310   1.205       .  T
C1310      C1311   1.439       .  S
C1311      C1312   1.399       .  A
C1311      C1316   1.399       .  A
C1312      C1313   1.398       .  A
C1312      H1321   1.084       .  S
C1313      C1314   1.408       .  A
C1313      H1322   1.081       .  S
C1314      C1315   1.408       .  A
C1315      C1316   1.398       .  A
C1315      H1323   1.081       .  S
C1316      H1324   1.084       .  S
C1325      C1326   1.408       .  A
C1325      C1330   1.409       .  A
C1326      C1327   1.397       .  A
C1326      H1339   1.081       .  S
C1327      C1328   1.398       .  A
C1327      H1340   1.084       .  S
C1328      C1329   1.397       .  A
C1328      C1331   1.435       .  S
C1329      C1330   1.397       .  A
C1329      H1341   1.084       .  S
C1330      H1342   1.081       .  S
C1331      C1332   1.203       .  T
C1332      C1333   1.435       .  S
C1333      C1334   1.398       .  A
C1333      C1338   1.398       .  A
C1334      C1335   1.397       .  A
C1334      H1343   1.084       .  S
C1335      C1336   1.407       .  A
C1335      H1344   1.082       .  S
C1336      C1337   1.407       .  A
C1337      C1338   1.397       .  A
C1337      H1345   1.082       .  S
C1338      H1346   1.084       .  S
C1347      C1348   1.408       .  A
C1347      C1352   1.408   1_554  A
C1348      C1349   1.398       .  A
C1348      H1361   1.081       .  S
C1349      C1350   1.399       .  A
C1349      H1362   1.084       .  S
C1350      C1351   1.398   1_554  A
C1350      C1353   1.438       .  S
C1351      C1352   1.398       .  A
C1351      H1363   1.084       .  S
C1352      H1364   1.081       .  S
C1353      C1354   1.205       .  T
C1354      C1355   1.437       .  S
C1355      C1356   1.398       .  A
C1355      C1360   1.398   1_554  A
C1356      C1357   1.398       .  A
C1356      H1365   1.084       .  S
C1357      C1358   1.408       .  A
C1357      H1366   1.081       .  S
C1358      C1359   1.408   1_554  A
C1359      C1360   1.397       .  A
C1359      H1367   1.081       .  S
C1360      H1368   1.084       .  S
