geometry optimzed in LAMMPS
_audit_creation_date              2020-12-01 
_audit_creation_method            'lammps2cif' 
_symmetry_space_group_name_H-M    'P1' 
_symmetry_Int_Tables_number       1 
_symmetry_cell_setting            triclinic 
loop_ 
_symmetry_equiv_pos_as_xyz 
  x,y,z 
_cell_length_a                    43.15436264 
_cell_length_b                    43.29739410340416 
_cell_length_c                    42.961255394626924 
_cell_angle_alpha                 90.53211735450492 
_cell_angle_beta                  89.06046641474619 
_cell_angle_gamma                 89.90796129572675 
loop_ 
_atom_site_label 
_atom_site_type_symbol 
_atom_site_fract_x 
_atom_site_fract_y 
_atom_site_fract_z 
_atom_site_charge 
C1          C  0.08351785  0.07856470  0.06449479     0.88000
C2          C  0.06498559  0.10265388  0.08387111    -0.52200
C3          C  0.08225333  0.11813289  0.10543378     0.10900
C4          C  0.11659123  0.10846263  0.10527082     0.21900
C5          C  0.11072187  0.09707676  0.05021743    -0.53000
C6          C  0.12778945  0.11305598  0.07149306     0.11000
C7          C  0.09882340  0.05757478  0.08880907    -0.52500
C8          C  0.11646047  0.07323796  0.11001453     0.11600
H9          H  0.04046725  0.10710196  0.08071470     0.16100
H10         H  0.13066890  0.12115397  0.12253734     0.01900
H11         H  0.11567087  0.09797318  0.02537276     0.16400
H12         H  0.09645687  0.03261017  0.08878856     0.16200
C13         C  0.97562964  0.08137086  0.96079843     0.88000
C14         C  0.95766057  0.06472387  0.93479126    -0.52200
C15         C  0.93760024  0.08311030  0.91902151     0.10900
C16         C  0.93789511  0.11698813  0.93005184     0.21900
C17         C  0.99163609  0.10864746  0.94422330    -0.53000
C18         C  0.97205631  0.12710319  0.92786216     0.11000
C19         C  0.94982768  0.09684581  0.98134078    -0.52500
C20         C  0.93036035  0.11586821  0.96519522     0.11600
H21         H  0.96037520  0.04026486  0.92955682     0.16100
H22         H  0.92202701  0.13192335  0.91678250     0.01900
H23         H  0.01645941  0.11263262  0.94490212     0.16400
H24         H  0.94712084  0.09367748  0.00621773     0.16200
C25         C  0.98140515  0.96321485  0.07683914     0.88000
C26         C  0.96361495  0.98262643  0.10171031    -0.52200
C27         C  0.94288984  0.96597486  0.11927750     0.10900
C28         C  0.94263033  0.93133761  0.11100513     0.21900
C29         C  0.99664956  0.93705444  0.09538971    -0.53000
C30         C  0.97644908  0.92061208  0.11354617     0.11000
C31         C  0.95585090  0.94690593  0.05806956    -0.52500
C32         C  0.93567153  0.92993565  0.07597092     0.11600
H33         H  0.96673863  0.00735315  0.10469285     0.16100
H34         H  0.92638394  0.91775130  0.12567972     0.01900
H35         H  0.02135545  0.93221672  0.09456385     0.16400
H36         H  0.95420137  0.94827986  0.03292795     0.16200
C37         C  0.08622442  0.97286989  0.98047153     0.88000
C38         C  0.06781397  0.94633239  0.96534026    -0.52200
C39         C  0.08472746  0.92896292  0.94434816     0.10900
C40         C  0.11889895  0.93887672  0.94134497     0.21900
C41         C  0.11453393  0.95662776  0.99501035    -0.53000
C42         C  0.13141145  0.93843409  0.97464695     0.11000
C43         C  0.10023507  0.99096236  0.95276442    -0.52500
C44         C  0.11785586  0.97322939  0.93259239     0.11600
H45         H  0.04335763  0.94231150  0.97003967     0.16100
H46         H  0.13263550  0.92452912  0.92461505     0.01900
H47         H  0.12041824  0.95897512  0.01939641     0.16400
H48         H  0.09734543  0.01569787  0.95001048     0.16200
C49         C  0.02055267  0.02649427  0.02183679    -0.01000
N50         N  0.72314495  0.81515070  0.51750444    -0.25800
N51         N  0.74951554  0.81369406  0.50150236    -0.33600
C52         C  0.75976840  0.84238253  0.49583661     0.02600
C53         C  0.73905360  0.86324722  0.50909712     0.08600
C54         C  0.71600489  0.84516092  0.52258445    -0.04500
H55         H  0.78238381  0.84743396  0.48594608     0.09300
H56         H  0.69681645  0.85319420  0.53703919     0.10500
Cu57       Cu  0.77685053  0.77477621  0.49889921     0.44200
Cu58       Cu  0.70287524  0.77553374  0.53654639     0.42000
Cu59       Cu  0.76532733  0.73003260  0.56740369     0.43900
N60         N  0.81217203  0.75249179  0.52110978    -0.33200
N61         N  0.80851922  0.73927231  0.54851357    -0.27400
C62         C  0.83646269  0.73528472  0.56127506    -0.03500
C63         C  0.85859665  0.74618099  0.54058903     0.08700
C64         C  0.84246463  0.75686225  0.51540068     0.02500
H65         H  0.84021894  0.72666761  0.58447305     0.10200
H66         H  0.85173549  0.77013287  0.49617532     0.09200
N67         N  0.71947656  0.71675329  0.56943147    -0.34600
N68         N  0.69655569  0.73190909  0.55629832    -0.26800
C69         C  0.67083856  0.71422326  0.55764932    -0.02000
C70         C  0.67818747  0.68692759  0.57258251     0.06600
C71         C  0.70901096  0.68955299  0.57994360     0.04700
H72         H  0.64857945  0.72072050  0.54849046     0.09800
H73         H  0.72322753  0.67229476  0.59090422     0.08600
N74         N  0.53524778  0.73658451  0.81159303    -0.25800
N75         N  0.51363489  0.75814466  0.81399225    -0.33600
C76         C  0.51177616  0.76844665  0.84352011     0.02600
C77         C  0.53330234  0.75260518  0.86083050     0.08600
C78         C  0.54767555  0.73245637  0.83984524    -0.04500
H79         H  0.49707534  0.78738344  0.85115287     0.09300
H80         H  0.56653408  0.71677572  0.84455188     0.10500
Cu81       Cu  0.49406500  0.77911302  0.77632643     0.44200
Cu82       Cu  0.54800932  0.71681658  0.76880504     0.42000
Cu83       Cu  0.53361908  0.76692323  0.70337359     0.43900
N84         N  0.50237569  0.81401043  0.74529458    -0.33200
N85         N  0.51963679  0.81074561  0.71978840    -0.27400
C86         C  0.52863163  0.83909310  0.71037191    -0.03500
C87         C  0.51642573  0.86100348  0.73106022     0.08700
C88         C  0.49972817  0.84407341  0.75268768     0.02500
H89         H  0.54450071  0.84334124  0.69113761     0.10200
H90         H  0.48913260  0.85248530  0.77411849     0.09200
N91         N  0.54575662  0.72006172  0.69834943    -0.34600
N92         N  0.55231134  0.70246806  0.72242387    -0.26800
C93         C  0.56132923  0.67441038  0.71197083    -0.02000
C94         C  0.55972534  0.67382617  0.67985900     0.06600
C95         C  0.54984120  0.70323091  0.67193315     0.04700
H96         H  0.56885778  0.65580496  0.72670828     0.09800
H97         H  0.54732166  0.71216077  0.64867329     0.08600
N98         N  0.53211628  0.80554554  0.32571324    -0.25800
N99         N  0.55137030  0.80673035  0.30154346    -0.33600
C100        C  0.55350407  0.83586919  0.29146139     0.02600
C101        C  0.53463738  0.85436749  0.31006315     0.08600
C102        C  0.52171176  0.83444664  0.33189830    -0.04500
H103        H  0.56619958  0.84246581  0.27066793     0.09300
H104        H  0.50428915  0.84018855  0.34940916     0.10500
Cu105      Cu  0.56548521  0.76899161  0.27590031     0.44200
Cu106      Cu  0.51716685  0.76305054  0.34356936     0.42000
Cu107      Cu  0.51243948  0.70730250  0.27840928     0.43900
N108        N  0.55382775  0.74461037  0.23673458    -0.33200
N109        N  0.53217850  0.72311575  0.23656759    -0.27400
C110        C  0.52416596  0.71766370  0.20675768    -0.03500
C111        C  0.54147301  0.73698426  0.18751294     0.08700
C112        C  0.56008665  0.75357704  0.20751168     0.02500
H113        H  0.50569025  0.70237082  0.19975750     0.10200
H114        H  0.57495664  0.77284932  0.20180549     0.09200
N115        N  0.50043891  0.69743732  0.32481249    -0.34600
N116        N  0.50354949  0.71679030  0.34865361    -0.26800
C117        C  0.49481223  0.70223973  0.37507790    -0.02000
C118        C  0.48539386  0.67253710  0.36741161     0.06600
C119        C  0.48902937  0.67051345  0.33541391     0.04700
H120        H  0.49396889  0.71294361  0.39793389     0.09800
H121        H  0.48357454  0.65083823  0.32080564     0.08600
N122        N  0.80711672  0.51610722  0.31811977    -0.25800
N123        N  0.80892048  0.53697494  0.29596861    -0.33600
C124        C  0.83869539  0.54141483  0.28772820     0.02600
C125        C  0.85693659  0.52237795  0.30556128     0.08600
C126        C  0.83611045  0.50676477  0.32475842    -0.04500
H127        H  0.84606237  0.55573631  0.26851122     0.09300
H128        H  0.84155711  0.48878811  0.34112232     0.10500
Cu129      Cu  0.77120639  0.55116527  0.27143359     0.44200
Cu130      Cu  0.76402715  0.49999534  0.33432629     0.42000
Cu131      Cu  0.69897186  0.51074763  0.28135389     0.43900
N132        N  0.74252263  0.54073053  0.23529091    -0.33200
N133        N  0.71684942  0.52426684  0.23762670    -0.27400
C134        C  0.70810765  0.51621948  0.20855546    -0.03500
C135        C  0.72969273  0.52787529  0.18728439     0.08700
C136        C  0.75091621  0.54345606  0.20529268     0.02500
H137        H  0.68851822  0.50160694  0.20334467     0.10200
H138        H  0.77202773  0.55462499  0.19757101     0.09200
N139        N  0.69351966  0.49784877  0.32834578    -0.34600
N140        N  0.71737910  0.49236992  0.34655471    -0.26800
C141        C  0.70668333  0.48248799  0.37434464    -0.02000
C142        C  0.67462346  0.48242646  0.37424754     0.06600
C143        C  0.66700422  0.49225854  0.34461608     0.04700
H144        H  0.72126648  0.47587304  0.39342335     0.09800
H145        H  0.64397495  0.49398429  0.33519925     0.08600
N146        N  0.56929000  0.78207669  0.98729029    -0.35100
N147        N  0.50270410  0.78478896  0.99705153    -0.55600
N148        N  0.51066354  0.77702868  0.06378148    -0.35100
N149        N  0.57680269  0.78145333  0.05468338    -0.55600
C150        C  0.55935841  0.78690965  0.95802049     0.28500
C151        C  0.59817893  0.79414798  0.98926987     0.28500
C152        C  0.48110782  0.78766648  0.06357771     0.28500
C153        C  0.52008934  0.77758557  0.09366400     0.28500
C154        C  0.50332017  0.77708578  0.96648005     0.37100
C155        C  0.47275586  0.78290460  0.00659458     0.37100
C156        C  0.60683333  0.78257102  0.04520768     0.37100
C157        C  0.57661529  0.77097756  0.08428789     0.37100
C158        C  0.58232300  0.80152181  0.94083464    -0.20400
C159        C  0.60657286  0.80664127  0.96067307    -0.20400
C160        C  0.47165288  0.79480085  0.09384737    -0.20400
C161        C  0.49613797  0.78818240  0.11283073    -0.20400
C162        C  0.47364522  0.77014977  0.95665090    -0.21400
C163        C  0.45426267  0.77411461  0.98200430    -0.21400
C164        C  0.62585333  0.77304243  0.06895942    -0.21400
C165        C  0.60673120  0.76526156  0.09353255    -0.21400
C166        C  0.52975320  0.77908869  0.94675029    -0.16800
C167        C  0.61747693  0.79299445  0.01579049    -0.16800
C168        C  0.54995417  0.76921648  0.10392451    -0.16800
C169        C  0.46183809  0.78927583  0.03718571    -0.16800
H170        H  0.58126174  0.80880017  0.91684210     0.16100
H171        H  0.62785004  0.81843062  0.95454494     0.16100
H172        H  0.44936493  0.80372869  0.10158534     0.16100
H173        H  0.49648041  0.79157207  0.13781136     0.16100
H174        H  0.46654775  0.76338370  0.93352993     0.14400
H175        H  0.42946942  0.77039177  0.98238336     0.14400
H176        H  0.65089324  0.77147618  0.06847997     0.14400
H177        H  0.61430436  0.75698375  0.11584852     0.14400
H178        H  0.55775808  0.76894674  0.00392889     0.27700
H179        H  0.52287115  0.76709323  0.04523114     0.27700
N180        N  0.76491693  0.56009861  0.05531078    -0.35100
N181        N  0.76456749  0.49410440  0.05614174    -0.55600
N182        N  0.76466501  0.49043093  0.98873590    -0.35100
N183        N  0.76579813  0.55654232  0.98786372    -0.55600
C184        C  0.77074298  0.55361523  0.08539141     0.28500
C185        C  0.78051349  0.58629008  0.04809368     0.28500
C186        C  0.78003307  0.46417241  0.99586718     0.28500
C187        C  0.77150692  0.49700015  0.95871422     0.28500
C188        C  0.75523656  0.49916885  0.08598222     0.37100
C189        C  0.76444548  0.46323683  0.05145253     0.37100
C190        C  0.76690414  0.58740308  0.99233219     0.37100
C191        C  0.75727808  0.55173329  0.95804931     0.37100
C192        C  0.79000341  0.57602994  0.09767838    -0.20400
C193        C  0.79692192  0.59608319  0.07391125    -0.20400
C194        C  0.79752420  0.45456992  0.97012214    -0.20400
C195        C  0.79139269  0.47473955  0.94640951    -0.20400
C196        C  0.74850287  0.47129228  0.10017902    -0.21400
C197        C  0.75445005  0.44853603  0.07833985    -0.21400
C198        C  0.75868576  0.60239331  0.96529001    -0.21400
C199        C  0.75243048  0.57981503  0.94361209    -0.21400
C200        C  0.75900415  0.52776424  0.10158215    -0.16800
C201        C  0.77890473  0.60185773  0.01918228    -0.16800
C202        C  0.76018804  0.52286890  0.94266565    -0.16800
C203        C  0.77708822  0.44842229  0.02462984    -0.16800
H204        H  0.79936443  0.57724606  0.12084524     0.16100
H205        H  0.81279161  0.61527820  0.07565750     0.16100
H206        H  0.81365489  0.43548984  0.96843585     0.16100
H207        H  0.80173652  0.47378821  0.92332693     0.16100
H208        H  0.74210495  0.46738990  0.12425637     0.14400
H209        H  0.75260123  0.42393660  0.08219462     0.14400
H210        H  0.75821672  0.62702561  0.96124395     0.14400
H211        H  0.74724783  0.58391254  0.91946507     0.14400
H212        H  0.74894419  0.54851938  0.04151076     0.27700
H213        H  0.74817322  0.50199051  0.00253087     0.27700
N214        N  0.81861213  0.73549030  0.03417423    -0.25800
N215        N  0.80764188  0.73235370  0.00578049    -0.33600
C216        C  0.79792333  0.70319863  0.00163022     0.02600
C217        C  0.80267515  0.68726102  0.02883091     0.08600
C218        C  0.81573412  0.70838912  0.04906155    -0.04500
H219        H  0.78509301  0.69521517  0.98168233     0.09300
H220        H  0.82123983  0.70478967  0.07323730     0.10500
Cu221      Cu  0.79379506  0.76930697  0.97958955     0.44200
Cu222      Cu  0.83298816  0.77782959  0.05167302     0.42000
Cu223      Cu  0.78891949  0.84052441  0.02234744     0.43900
N224        N  0.75402500  0.79547701  0.98238892    -0.33200
N225        N  0.75059813  0.81970403  0.00109094    -0.27400
C226        C  0.71994948  0.82421248  0.00648475    -0.03500
C227        C  0.70364500  0.80165161  0.99024965     0.08700
C228        C  0.72607264  0.78429219  0.97504757     0.02500
H229        H  0.71043846  0.84123625  0.02257449     0.10200
H230        H  0.72246148  0.76278803  0.96259896     0.09200
N231        N  0.83188055  0.84698272  0.04378781    -0.34600
N232        N  0.84685831  0.82350031  0.05608275    -0.26800
C233        C  0.87304683  0.83379875  0.06904187    -0.02000
C234        C  0.87527663  0.86520270  0.06425272     0.06600
C235        C  0.84872588  0.87295108  0.04812687     0.04700
H236        H  0.88968471  0.81929806  0.08057017     0.09800
H237        H  0.84192331  0.89572977  0.04064584     0.08600
N238        N  0.80903239  0.53562924  0.72089348    -0.25800
N239        N  0.81021895  0.51739383  0.74532017    -0.33600
C240        C  0.83972785  0.51367632  0.75387793     0.02600
C241        C  0.85862597  0.53038386  0.73398680     0.08600
C242        C  0.83834518  0.54410271  0.71328363    -0.04500
H243        H  0.84647720  0.50155386  0.77459449     0.09300
H244        H  0.84439726  0.56004673  0.69493161     0.10500
Cu245      Cu  0.77234504  0.50542637  0.77195434     0.44200
Cu246      Cu  0.76593850  0.54930261  0.70282218     0.42000
Cu247      Cu  0.70677596  0.55340201  0.76606889     0.43900
N248        N  0.74406319  0.51555653  0.80944336    -0.33200
N249        N  0.72080765  0.53533621  0.80856663    -0.27400
C250        C  0.71176455  0.54213423  0.83810199    -0.03500
C251        C  0.73078445  0.52615905  0.85824861     0.08700
C252        C  0.75068570  0.50933732  0.83907003     0.02500
H253        H  0.69409237  0.55889367  0.84446527     0.10200
H254        H  0.77004693  0.49518643  0.84586529     0.09200
N255        N  0.69789924  0.56104628  0.71899414    -0.34600
N256        N  0.71835750  0.55818945  0.69576966    -0.26800
C257        C  0.70355408  0.56287506  0.66863354    -0.02000
C258        C  0.67250398  0.56918904  0.67524823     0.06600
C259        C  0.67007620  0.56820605  0.70733343     0.04700
H260        H  0.71478581  0.56303132  0.64593641     0.09800
H261        H  0.64941079  0.57252709  0.72131007     0.08600
N262        N  0.30300778  0.81206810  0.53020704    -0.25800
N263        N  0.28479969  0.80918474  0.55501634    -0.33600
C264        C  0.27305004  0.83682604  0.56315313     0.02600
C265        C  0.28388417  0.85842830  0.54236565     0.08600
C266        C  0.30319384  0.84206915  0.52178698    -0.04500
H267        H  0.25534479  0.84037925  0.58096364     0.09300
H268        H  0.31496811  0.85086819  0.50130647     0.10500
Cu269      Cu  0.26596451  0.76791923  0.56845005     0.44200
Cu270      Cu  0.32203895  0.77287594  0.50807580     0.42000
Cu271      Cu  0.27101580  0.70589130  0.51402339     0.43900
N272        N  0.22803896  0.74349377  0.55419732    -0.33200
N273        N  0.22886967  0.72171752  0.53247501    -0.27400
C274        C  0.19972161  0.71667086  0.52272376    -0.03500
C275        C  0.18001339  0.73682590  0.53873383     0.08700
C276        C  0.19880425  0.75319224  0.55863388     0.02500
H277        H  0.19368566  0.70139701  0.50369999     0.10200
H278        H  0.19226404  0.77245460  0.57355819     0.09200
N279        N  0.31776662  0.70293477  0.50101367    -0.34600
N280        N  0.33582936  0.72740700  0.49745699    -0.26800
C281        C  0.36426630  0.71780807  0.48820387    -0.02000
C282        C  0.36440681  0.68585324  0.48656001     0.06600
C283        C  0.33448411  0.67718808  0.49476065     0.04700
H284        H  0.38362939  0.73298628  0.48345288     0.09800
H285        H  0.32532705  0.65395040  0.49538341     0.08600
N286        N  0.98642337  0.77357032  0.56414199    -0.35100
N287        N  0.99125918  0.77405683  0.49671221    -0.55600
N288        N  0.05682870  0.78135296  0.50020382    -0.35100
N289        N  0.05217286  0.78042752  0.56762470    -0.55600
C290        C  0.96118426  0.75706313  0.55604269     0.28500
C291        C  0.99213579  0.76733074  0.59425472     0.28500
C292        C  0.05345587  0.77760175  0.46915413     0.28500
C293        C  0.08634113  0.77351891  0.50695687     0.28500
C294        C  0.96025862  0.77242221  0.50077048     0.37100
C295        C  0.99652786  0.78370746  0.46727910     0.37100
C296        C  0.04523235  0.78672647  0.59779286     0.37100
C297        C  0.08313211  0.78335669  0.56419186     0.37100
C298        C  0.95156018  0.73922286  0.58110237    -0.20400
C299        C  0.97056985  0.74640201  0.60551951    -0.20400
C300        C  0.08141972  0.76827498  0.45578267    -0.20400
C301        C  0.10210407  0.76559661  0.47959182    -0.20400
C302        C  0.94560465  0.78136908  0.47378598    -0.21400
C303        C  0.96861150  0.78847117  0.45253719    -0.21400
C304        C  0.07206588  0.79357964  0.61375348    -0.21400
C305        C  0.09608278  0.79123951  0.59251267    -0.21400
C306        C  0.94551661  0.76008537  0.52748399    -0.16800
C307        C  0.01591387  0.78107683  0.61161645    -0.16800
C308        C  0.09996105  0.77567791  0.53672118    -0.16800
C309        C  0.02605544  0.78353933  0.45261071    -0.16800
H310        H  0.93270556  0.72280515  0.58195475     0.16100
H311        H  0.96913337  0.73652607  0.62852585     0.16100
H312        H  0.08658032  0.76393017  0.43140398     0.16100
H313        H  0.12624634  0.75934336  0.47667953     0.16100
H314        H  0.92096834  0.78215074  0.46954646     0.14400
H315        H  0.96505904  0.79513427  0.42865858     0.14400
H316        H  0.07463652  0.79758620  0.63845263     0.14400
H317        H  0.12036405  0.79404155  0.59770930     0.14400
H318        H  0.99704362  0.79096989  0.55120371     0.27700
H319        H  0.04071175  0.79169987  0.51520791     0.27700
N320        N  0.98417253  0.56407839  0.76731700    -0.35100
N321        N  0.05109939  0.57331955  0.77359512    -0.55600
N322        N  0.06014679  0.50730085  0.77183879    -0.35100
N323        N  0.99288776  0.49816653  0.77292186    -0.55600
C324        C  0.98458592  0.59388277  0.77723271     0.28500
C325        C  0.95435783  0.55435457  0.76874509     0.28500
C326        C  0.08975884  0.51704609  0.77495263     0.28500
C327        C  0.05859759  0.47802481  0.78268324     0.28500
C328        C  0.04168809  0.60311625  0.77270694     0.37100
C329        C  0.08185489  0.57318724  0.76678968     0.37100
C330        C  0.96344961  0.49798522  0.76246914     0.37100
C331        C  0.00253844  0.46840112  0.77302753     0.37100
C332        C  0.95453453  0.60317261  0.78474191    -0.20400
C333        C  0.93550038  0.57834241  0.77920620    -0.20400
C334        C  0.10739578  0.49359791  0.78743461    -0.20400
C335        C  0.08773096  0.46912704  0.79258686    -0.20400
C336        C  0.06666263  0.62206479  0.76572203    -0.21400
C337        C  0.09202317  0.60310889  0.76169528    -0.21400
C338        C  0.95443445  0.46791197  0.75590668    -0.21400
C339        C  0.97906737  0.44918705  0.76286557    -0.21400
C340        C  0.01090264  0.61351089  0.77824981    -0.16800
C341        C  0.94383041  0.52424688  0.76120364    -0.16800
C342        C  0.03232001  0.45831492  0.78196702    -0.16800
C343        C  0.10121460  0.54672105  0.76726443    -0.16800
H344        H  0.94697740  0.62556410  0.79334549     0.16100
H345        H  0.91068572  0.57785791  0.78321284     0.16100
H346        H  0.13176114  0.49427023  0.79297553     0.16100
H347        H  0.09429412  0.44716035  0.80234992     0.16100
H348        H  0.06656529  0.64691176  0.76322212     0.14400
H349        H  0.11533090  0.61061923  0.75604198     0.14400
H350        H  0.93232879  0.46015319  0.74726857     0.14400
H351        H  0.97980487  0.42432668  0.76010226     0.14400
H352        H  0.00253658  0.55183046  0.75734017     0.27700
H353        H  0.04297922  0.51896784  0.76008074     0.27700
N354        N  0.01559033  0.74567962  0.82801302    -0.25800
N355        N  0.99633068  0.74511755  0.80444839    -0.33600
C356        C  0.99320970  0.71601152  0.79397140     0.02600
C357        C  0.01146086  0.69691951  0.81170496     0.08600
C358        C  0.02517774  0.71651576  0.83325427    -0.04500
H359        H  0.98068853  0.70987043  0.77322621     0.09300
H360        H  0.04245199  0.71028325  0.85005662     0.10500
Cu361      Cu  0.98407929  0.78362074  0.78010694     0.44200
Cu362      Cu  0.03158876  0.78750309  0.84679159     0.42000
Cu363      Cu  0.03998535  0.84408853  0.78473890     0.43900
N364        N  0.99809570  0.80888790  0.74236771    -0.33200
N365        N  0.02022777  0.82990664  0.74309040    -0.27400
C366        C  0.02926842  0.83607022  0.71361557    -0.03500
C367        C  0.01240315  0.81743868  0.69370409     0.08700
C368        C  0.99269605  0.80078274  0.71278548     0.02500
H369        H  0.04840556  0.85099419  0.70730471     0.10200
H370        H  0.97731483  0.78228646  0.70604731     0.09200
N371        N  0.05162197  0.85255081  0.83092309    -0.34600
N372        N  0.04709332  0.83289690  0.85399408    -0.26800
C373        C  0.05540743  0.84669730  0.88093450    -0.02000
C374        C  0.06604356  0.87618864  0.87427807     0.06600
C375        C  0.06350827  0.87889566  0.84241226     0.04700
H376        H  0.05474491  0.83574019  0.90346310     0.09800
H377        H  0.06966049  0.89876923  0.82854554     0.08600
N378        N  0.31783490  0.50796289  0.81503781    -0.25800
N379        N  0.29938821  0.53215684  0.81873951    -0.33600
C380        C  0.29366750  0.53684574  0.84920755     0.02600
C381        C  0.30895446  0.51435239  0.86552427     0.08600
C382        C  0.32385763  0.49618444  0.84322934    -0.04500
H383        H  0.27690391  0.55322557  0.85855856     0.09300
H384        H  0.33677076  0.47516413  0.84707694     0.10500
Cu385      Cu  0.27372542  0.55014664  0.78322460     0.44200
Cu386      Cu  0.33081034  0.49126866  0.77119761     0.42000
Cu387      Cu  0.27861486  0.51141196  0.70916787     0.43900
N388        N  0.23614926  0.54507288  0.75468004    -0.33200
N389        N  0.23683177  0.52894921  0.72839759    -0.27400
C390        C  0.20731573  0.52401050  0.71959006    -0.03500
C391        C  0.18732289  0.53778204  0.74136201     0.08700
C392        C  0.20659818  0.55093133  0.76318447     0.02500
H393        H  0.20079701  0.51004340  0.69974707     0.10200
H394        H  0.19975856  0.56159971  0.78510520     0.09200
N395        N  0.32387919  0.49437508  0.70117888    -0.34600
N396        N  0.34183560  0.48555308  0.72417314    -0.26800
C397        C  0.36848230  0.47403765  0.71221895    -0.02000
C398        C  0.36790255  0.47630787  0.68019656     0.06600
C399        C  0.33920219  0.48924381  0.67388298     0.04700
H400        H  0.38707924  0.46475365  0.72591844     0.09800
H401        H  0.32972027  0.49344334  0.65115223     0.08600
N402        N  0.72639464  0.23219827  0.51944662    -0.25800
N403        N  0.74746577  0.23295527  0.54142576    -0.33600
C404        C  0.75696537  0.20408929  0.54733908     0.02600
C405        C  0.74112020  0.18392742  0.52821015     0.08600
C406        C  0.72180794  0.20253589  0.51092730    -0.04500
H407        H  0.77585725  0.19866645  0.56259111     0.09300
H408        H  0.70690210  0.19519012  0.49226430     0.10500
Cu409      Cu  0.77031165  0.27236274  0.55508600     0.44200
Cu410      Cu  0.70844288  0.27229322  0.49983469     0.42000
Cu411      Cu  0.76308349  0.33442770  0.50146354     0.43900
N412        N  0.80761430  0.29763015  0.53951502    -0.33200
N413        N  0.80566572  0.31765623  0.51659363    -0.27400
C414        C  0.83409431  0.32118249  0.50362298    -0.03900
C415        C  0.85479738  0.30305798  0.51973101     0.08700
C416        C  0.83719623  0.28854399  0.54231406     0.02500
H417        H  0.83896200  0.33429724  0.48280268     0.10200
H418        H  0.84458567  0.26967199  0.55679310     0.09200
N419        N  0.71634980  0.34108661  0.49125920    -0.34600
N420        N  0.69667261  0.31778367  0.48917298    -0.26800
C421        C  0.66858563  0.32885800  0.48178275    -0.02000
C422        C  0.67036280  0.36070164  0.47983236     0.06600
C423        C  0.70105199  0.36770601  0.48593679     0.04700
H424        H  0.64811330  0.31481220  0.47880975     0.09800
H425        H  0.71156770  0.39037143  0.48603852     0.08600
N426        N  0.78129746  0.98494352  0.54448372    -0.35100
N427        N  0.77871389  0.99625081  0.47834031    -0.55600
N428        N  0.77649753  0.06233733  0.49126295    -0.35100
N429        N  0.78655317  0.05121786  0.55683845    -0.55600
C430        C  0.78175959  0.95563563  0.53321967     0.28500
C431        C  0.79319141  0.98439320  0.57347770     0.28500
C432        C  0.78388122  0.06268965  0.46050453     0.28500
C433        C  0.77991689  0.09145038  0.50227564     0.28500
C434        C  0.77051611  0.96613039  0.47771009     0.37100
C435        C  0.77603001  0.00671735  0.44895725     0.37100
C436        C  0.78779694  0.04057552  0.58631581     0.37100
C437        C  0.77743899  0.08111355  0.55895275     0.37100
C438        C  0.79371100  0.93608703  0.55539743    -0.20400
C439        C  0.80120636  0.95422113  0.58063510    -0.20400
C440        C  0.79190467  0.09250689  0.45195436    -0.20400
C441        C  0.78922227  0.11066855  0.47826809    -0.20400
C442        C  0.76285909  0.95736071  0.44766994    -0.21400
C443        C  0.76666295  0.98300551  0.42940324    -0.21400
C444        C  0.78008985  0.06402997  0.60724802    -0.21400
C445        C  0.77328869  0.08959132  0.58993811    -0.21400
C446        C  0.77169581  0.94601512  0.50343320    -0.16800
C447        C  0.79480714  0.00974600  0.59461887    -0.16800
C448        C  0.77429525  0.10120489  0.53336916    -0.16800
C449        C  0.78199516  0.03737720  0.43951331    -0.16800
H450        H  0.79716665  0.91137587  0.55342687     0.16100
H451        H  0.81110654  0.94596722  0.60200218     0.16100
H452        H  0.79879884  0.10047058  0.42906465     0.16100
H453        H  0.79406740  0.13515661  0.47964350     0.16100
H454        H  0.75561125  0.93478223  0.43962824     0.14400
H455        H  0.76243976  0.98418866  0.40467951     0.14400
H456        H  0.77844346  0.06268434  0.63235430     0.14400
H457        H  0.76603124  0.11180582  0.59923358     0.14400
H458        H  0.77030368  0.00345348  0.53417352     0.27700
H459        H  0.76642909  0.04429072  0.50351804     0.27700
N460        N  0.55485743  0.98824303  0.75816930    -0.35100
N461        N  0.48832010  0.99718802  0.76187823    -0.55600
N462        N  0.49692057  0.06402502  0.75948372    -0.35100
N463        N  0.56331801  0.05525137  0.76214534    -0.55600
C464        C  0.54501617  0.95875904  0.76173417     0.28500
C465        C  0.58444402  0.98967659  0.76822820     0.28500
C466        C  0.46705834  0.06265330  0.76958867     0.28500
C467        C  0.50654639  0.09351715  0.76341343     0.28500
C468        C  0.48883167  0.96704216  0.75333189     0.37100
C469        C  0.45844978  0.00648259  0.76030011     0.37100
C470        C  0.59322781  0.04595814  0.75997496     0.37100
C471        C  0.56291283  0.08543523  0.75422466     0.37100
C472        C  0.56871878  0.94106834  0.77368967    -0.20400
C473        C  0.59349147  0.96058095  0.77801280    -0.20400
C474        C  0.45761463  0.09172990  0.77983350    -0.20400
C475        C  0.48246418  0.11121963  0.77577156    -0.20400
C476        C  0.45917430  0.95723382  0.74622054    -0.21400
C477        C  0.43992658  0.98216679  0.75078658    -0.21400
C478        C  0.61186234  0.07033872  0.75062299    -0.21400
C479        C  0.59267197  0.09529411  0.74690409    -0.21400
C480        C  0.51508741  0.94754369  0.75466818    -0.16800
C481        C  0.60404237  0.01601470  0.76728420    -0.16800
C482        C  0.53650727  0.10481771  0.75601433    -0.16800
C483        C  0.44753135  0.03642202  0.76813709    -0.16800
H484        H  0.56805161  0.91676773  0.77933862     0.16100
H485        H  0.61566906  0.95398232  0.78731503     0.16100
H486        H  0.43509365  0.09832460  0.78917572     0.16100
H487        H  0.48286097  0.13554493  0.78176832     0.16100
H488        H  0.45203176  0.93437037  0.73892989     0.14400
H489        H  0.41516130  0.98238823  0.74722858     0.14400
H490        H  0.63667529  0.07017021  0.74658127     0.14400
H491        H  0.59990778  0.11816720  0.73993792     0.14400
H492        H  0.54289678  0.00555892  0.74681791     0.27700
H493        H  0.50918637  0.04673998  0.74769817     0.27700
N494        N  0.73781978  0.03256277  0.80828437    -0.25800
N495        N  0.73742204  0.01035414  0.78700489    -0.33600
C496        C  0.70811295  0.00487369  0.77856714     0.02600
C497        C  0.68869572  0.02454784  0.79532880     0.08600
C498        C  0.70834508  0.04177087  0.81403814    -0.04500
H499        H  0.70185323  0.98917796  0.75999705     0.09300
H500        H  0.70177670  0.06050169  0.82964329     0.10500
Cu501      Cu  0.77639557  0.99432487  0.76393258     0.44200
Cu502      Cu  0.77971594  0.05009053  0.82530918     0.42000
Cu503      Cu  0.84671114  0.03603864  0.77324452     0.43900
N504        N  0.80769861  0.00070540  0.72809047    -0.33200
N505        N  0.83255620  0.01830167  0.73017280    -0.27400
C506        C  0.84248803  0.02513927  0.70105185    -0.03500
C507        C  0.82277262  0.01116047  0.67986603     0.08700
C508        C  0.80119104  0.99573917  0.69806310     0.02500
H509        H  0.86109056  0.04105028  0.69570486     0.10200
H510        H  0.78016994  0.98469406  0.69038661     0.09200
N511        N  0.85025242  0.05213572  0.81927661    -0.34600
N512        N  0.82595456  0.05860404  0.83746726    -0.26800
C513        C  0.83610114  0.06977586  0.86487114    -0.02000
C514        C  0.86821888  0.06980766  0.86429622     0.06600
C515        C  0.87638912  0.05843765  0.83498721     0.04700
H516        H  0.82115690  0.07702208  0.88405510     0.09800
H517        H  0.89960612  0.05569034  0.82547466     0.08600
N518        N  0.52304440  0.24106709  0.72520262    -0.25800
N519        N  0.53979934  0.23896194  0.75055541    -0.33600
C520        C  0.54426335  0.20909543  0.75729317     0.02600
C521        C  0.52960021  0.19119875  0.73514837     0.08600
C522        C  0.51635167  0.21226050  0.71510778    -0.04500
H523        H  0.55537861  0.20121441  0.77815809     0.09300
H524        H  0.50172283  0.20702140  0.69554605     0.10500
Cu525      Cu  0.54911374  0.27570806  0.77974458     0.44200
Cu526      Cu  0.50755509  0.28370112  0.70903569     0.42000
Cu527      Cu  0.49905518  0.34068305  0.77253625     0.43900
N528        N  0.53812937  0.30443652  0.81675274    -0.33200
N529        N  0.51683682  0.32632271  0.81530513    -0.27400
C530        C  0.50777228  0.33388694  0.84463617    -0.03500
C531        C  0.52481087  0.31640749  0.86527406     0.08700
C532        C  0.54370690  0.29803725  0.84667271     0.02500
H533        H  0.48869612  0.34923821  0.85046065     0.10200
H534        H  0.55736955  0.27859743  0.85422399     0.09200
N535        N  0.48956103  0.34970195  0.72562663    -0.34600
N536        N  0.49395591  0.32956101  0.70255144    -0.26800
C537        C  0.48728751  0.34328055  0.67537884    -0.02000
C538        C  0.47790505  0.37336438  0.68160435     0.06600
C539        C  0.47938337  0.37648622  0.71367138     0.04700
H540        H  0.48825723  0.33188537  0.65286453     0.09800
H541        H  0.47365527  0.39689263  0.72732324     0.08600
N542        N  0.28743165  0.56122871  0.99844820    -0.35100
N543        N  0.27548356  0.56200758  0.06459269    -0.55600
N544        N  0.27211290  0.49496474  0.06329806    -0.35100
N545        N  0.28108533  0.49460840  0.99640593    -0.55600
C546        C  0.27976576  0.59141474  0.00252144     0.28500
C547        C  0.28913059  0.55551677  0.96748759     0.28500
C548        C  0.26077643  0.50293923  0.09169403     0.28500
C549        C  0.25875098  0.46786221  0.05512210     0.28500
C550        C  0.28062087  0.59241280  0.06037784     0.37100
C551        C  0.27833842  0.55673044  0.09532412     0.37100
C552        C  0.29769413  0.49891022  0.96983038     0.37100
C553        C  0.28327395  0.46426752  0.00325467     0.37100
C554        C  0.27669987  0.60505145  0.97363941    -0.20400
C555        C  0.28252796  0.58244230  0.95157742    -0.20400
C556        C  0.23961293  0.48101919  0.10170153    -0.20400
C557        C  0.23764419  0.45930909  0.07817827    -0.20400
C558        C  0.28587565  0.60679180  0.08878584    -0.21400
C559        C  0.28462301  0.58411798  0.11093721    -0.21400
C560        C  0.31106525  0.47118825  0.96017517    -0.21400
C561        C  0.30140964  0.44913069  0.98101700    -0.21400
C562        C  0.27873185  0.60746892  0.03146549    -0.16800
C563        C  0.29879550  0.52723519  0.95348814    -0.16800
C564        C  0.26763100  0.45015125  0.02853408    -0.16800
C565        C  0.27134928  0.52821094  0.10937611    -0.16800
H566        H  0.27171813  0.62898841  0.96874702     0.16100
H567        H  0.28226881  0.58569016  0.92663728     0.16100
H568        H  0.22643986  0.48093024  0.12333751     0.16100
H569        H  0.22230187  0.43959894  0.07829120     0.16100
H570        H  0.28981751  0.63109826  0.09323281     0.14400
H571        H  0.28659269  0.58782065  0.13575413     0.14400
H572        H  0.32629031  0.46710489  0.94031520     0.14400
H573        H  0.30758402  0.42489371  0.98025766     0.14400
H574        H  0.29499542  0.54618429  0.01541113     0.27700
H575        H  0.29085248  0.50554662  0.05211923     0.27700
N576        N  0.32785361  0.83148445  0.02349757    -0.25800
N577        N  0.32859089  0.80696520  0.04156312    -0.33600
C578        C  0.35801380  0.79887550  0.04675152     0.02600
C579        C  0.37737121  0.81899436  0.03109033     0.08600
C580        C  0.35745465  0.83952911  0.01657480    -0.04500
H581        H  0.36450467  0.77797555  0.05859699     0.09300
H582        H  0.36401724  0.85774692  0.00072382     0.10500
Cu583      Cu  0.29181330  0.77823469  0.04990507     0.44200
Cu584      Cu  0.28542187  0.84868206  0.00677746     0.42000
Cu585      Cu  0.23049698  0.78421033  0.99762197     0.43900
N586        N  0.26602002  0.74062209  0.03708328    -0.33200
N587        N  0.24374793  0.74200451  0.01646310    -0.27400
C588        C  0.23484080  0.71296570  0.00933579    -0.03500
C589        C  0.25302248  0.69252403  0.02580521     0.08700
C590        C  0.27235960  0.71100582  0.04330986     0.02500
H591        H  0.21769814  0.70711161  0.99217183     0.10200
H592        H  0.29077356  0.70366375  0.05834294     0.09200
N593        N  0.22009090  0.83038358  0.98851653    -0.34600
N594        N  0.23872137  0.85417761  0.99349756    -0.26800
C595        C  0.22260908  0.88054275  0.98856709    -0.02000
C596        C  0.19270154  0.87278363  0.97969761     0.06600
C597        C  0.19228747  0.84088163  0.97961054     0.04700
H598        H  0.23204625  0.90357395  0.99080350     0.09800
H599        H  0.17272107  0.82625651  0.97433167     0.08600
N600        N  0.99221525  0.55492835  0.26963758    -0.35100
N601        N  0.98383774  0.48807150  0.27388022    -0.55600
N602        N  0.05006563  0.47959898  0.27604981    -0.35100
N603        N  0.05728494  0.54670387  0.27931547    -0.55600
C604        C  0.96198878  0.55374612  0.27858467     0.28500
C605        C  0.00140259  0.58471419  0.27224764     0.28500
C606        C  0.04008254  0.45006732  0.27818814     0.28500
C607        C  0.07742572  0.48145925  0.29101638     0.28500
C608        C  0.95396104  0.49710817  0.27143176     0.37100
C609        C  0.98492889  0.45791496  0.26535538     0.37100
C610        C  0.05821849  0.57668558  0.27063872     0.37100
C611        C  0.08694559  0.53782878  0.28367679     0.37100
C612        C  0.95192200  0.58326401  0.28671998    -0.20400
C613        C  0.97668516  0.60280655  0.28242845    -0.20400
C614        C  0.06155243  0.43267232  0.29400916    -0.20400
C615        C  0.08481279  0.45256137  0.30262115    -0.20400
C616        C  0.93592728  0.47253067  0.26166051    -0.21400
C617        C  0.95557205  0.44781112  0.25745550    -0.21400
C618        C  0.08870591  0.58679358  0.26938601    -0.21400
C619        C  0.10680962  0.56235764  0.27811489    -0.21400
C620        C  0.94269961  0.52724962  0.27792805    -0.16800
C621        C  0.03184671  0.59578032  0.26686857    -0.16800
C622        C  0.09645824  0.50815985  0.29329432    -0.16800
C623        C  0.01142245  0.43875973  0.26740985    -0.16800
H624        H  0.92906503  0.59012567  0.29492351     0.16100
H625        H  0.97671358  0.62737257  0.28730533     0.16100
H626        H  0.05997883  0.40847317  0.29991966     0.16100
H627        H  0.10477861  0.44629669  0.31609762     0.16100
H628        H  0.91128432  0.47252319  0.25739149     0.14400
H629        H  0.94881063  0.42490682  0.24994206     0.14400
H630        H  0.09713321  0.60956461  0.26353008     0.14400
H631        H  0.13181311  0.56252634  0.27974253     0.14400
H632        H  0.00522815  0.53715185  0.25957684     0.27700
H633        H  0.03978896  0.49665830  0.26283262     0.27700
N634        N  0.02041639  0.81914521  0.31682410    -0.25800
N635        N  0.03771137  0.79411420  0.31881634    -0.33600
C636        C  0.04183098  0.78729384  0.34882588     0.02600
C637        C  0.02635028  0.80914337  0.36695168     0.08600
C638        C  0.01333550  0.82929241  0.34587227    -0.04500
H639        H  0.05381185  0.76688562  0.35658335     0.09300
H640        H  0.99827079  0.84868014  0.35124841     0.10500
Cu641      Cu  0.04807602  0.76574694  0.28156753     0.44200
Cu642      Cu  0.00461208  0.83387510  0.27387724     0.42000
Cu643      Cu  0.00657589  0.77391193  0.21111948     0.43900
N644        N  0.03823315  0.72903084  0.25297046    -0.33200
N645        N  0.02078622  0.73070361  0.22807406    -0.27400
C646        C  0.01313554  0.70160397  0.21940419    -0.03500
C647        C  0.02652257  0.68096481  0.23997959     0.08700
C648        C  0.04228702  0.69943379  0.26077220     0.02500
H649        H  0.99777336  0.69591948  0.20055112     0.10200
H650        H  0.05378334  0.69231409  0.28169329     0.09200
N651        N  0.99675809  0.82110698  0.20435708    -0.34600
N652        N  0.99480335  0.84181875  0.22725392    -0.26800
C653        C  0.98675354  0.86929787  0.21545158    -0.02000
C654        C  0.98415806  0.86623038  0.18360499     0.06600
C655        C  0.99065441  0.83536851  0.17726129     0.04700
H656        H  0.98334823  0.89018606  0.22911140     0.09800
H657        H  0.99007175  0.82395164  0.15477277     0.08600
N658        N  0.31514082  0.52428707  0.24147911    -0.25800
N659        N  0.29646191  0.50055013  0.23715594    -0.33600
C660        C  0.28927117  0.49850001  0.20698999     0.02600
C661        C  0.30420856  0.52203981  0.19137454     0.08600
C662        C  0.32088210  0.53770009  0.21379436    -0.04500
H663        H  0.27275165  0.48226644  0.19761207     0.09300
H664        H  0.33415286  0.55864889  0.21063459     0.10500
Cu665      Cu  0.27337946  0.47806158  0.27236000     0.44200
Cu666      Cu  0.32629206  0.53966707  0.28585025     0.42000
Cu667      Cu  0.26587866  0.52034556  0.34319017     0.43900
N668        N  0.23271890  0.47978798  0.29760784    -0.33200
N669        N  0.22832060  0.49813268  0.32202833    -0.27400
C670        C  0.19747728  0.50190020  0.32662680    -0.03500
C671        C  0.18212805  0.48504003  0.30381071     0.08700
C672        C  0.20527986  0.47116220  0.28624770     0.02500
H673        H  0.18718469  0.51737677  0.34379860     0.10200
H674        H  0.20245815  0.45869314  0.26453160     0.09200
N675        N  0.30967421  0.53802887  0.35460359    -0.34600
N676        N  0.33098936  0.54586158  0.33360357    -0.26800
C677        C  0.35675075  0.55516145  0.34823927    -0.02000
C678        C  0.35173683  0.55277113  0.38004442     0.06600
C679        C  0.32167902  0.54177907  0.38319622     0.04700
H680        H  0.37807620  0.56167704  0.33647444     0.09800
H681        H  0.30965719  0.53626681  0.40472713     0.08600
N682        N  0.55783193  0.27969716  0.06609568    -0.35100
N683        N  0.56435232  0.28832277  0.99993051    -0.55600
N684        N  0.49769695  0.28442418  0.99387160    -0.35100
N685        N  0.49125461  0.27680777  0.06070809    -0.55600
C686        C  0.58884807  0.28350289  0.06335368     0.28500
C687        C  0.54962482  0.28527033  0.09624402     0.28500
C688        C  0.50565834  0.30173570  0.96881089     0.28500
C689        C  0.46709780  0.28900190  0.99966079     0.28500
C690        C  0.59393424  0.27997361  0.00573337     0.37100
C691        C  0.56199767  0.29083234  0.96870136     0.37100
C692        C  0.49341380  0.27284822  0.09175132     0.37100
C693        C  0.46230869  0.26833458  0.05267674     0.37100
C694        C  0.60072975  0.29108602  0.09221643    -0.20400
C695        C  0.57605363  0.29237328  0.11287558    -0.20400
C696        C  0.47993505  0.31831752  0.95947311    -0.20400
C697        C  0.45545519  0.30962226  0.97831845    -0.20400
C698        C  0.61059058  0.27737110  0.97797307    -0.21400
C699        C  0.59041460  0.28424112  0.95454601    -0.21400
C700        C  0.46538556  0.26213787  0.10366019    -0.21400
C701        C  0.44579050  0.25902265  0.07889699    -0.21400
C702        C  0.60674103  0.27830662  0.03585418    -0.16800
C703        C  0.51960279  0.28086851  0.10960412    -0.16800
C704        C  0.44951797  0.27416044  0.02320937    -0.16800
C705        C  0.53506391  0.30112280  0.95332953    -0.16800
H706        H  0.62471724  0.29492145  0.09804986     0.16100
H707        H  0.57787773  0.29679237  0.13757865     0.16100
H708        H  0.47872768  0.33520480  0.94114551     0.16100
H709        H  0.43205351  0.31839723  0.97692391     0.16100
H710        H  0.63495533  0.27207208  0.97485448     0.14400
H711        H  0.59622459  0.28444642  0.92995926     0.14400
H712        H  0.45932786  0.25761183  0.12772068     0.14400
H713        H  0.42165467  0.25246959  0.08053815     0.14400
H714        H  0.54398477  0.27015921  0.04899228     0.27700
H715        H  0.51132624  0.26775357  0.00444403     0.27700
N716        N  0.81251757  0.31296541  0.01041437    -0.25800
N717        N  0.79674888  0.31614396  0.03686566    -0.33600
C718        C  0.78809014  0.34575582  0.04058648     0.02600
C719        C  0.79846017  0.36204607  0.01499638     0.08600
C720        C  0.81370801  0.34055846  0.99616105    -0.04500
H721        H  0.77228752  0.35402655  0.05863427     0.09300
H722        H  0.82361478  0.34437799  0.97322592     0.10500
Cu723      Cu  0.77627784  0.27920624  0.05870705     0.44200
Cu724      Cu  0.82834605  0.26988709  0.99492099     0.42000
Cu725      Cu  0.77975970  0.20651045  0.01594380     0.43900
N726        N  0.73805402  0.25238496  0.04987192    -0.33200
N727        N  0.73825963  0.22710891  0.03233917    -0.27400
C728        C  0.70877091  0.22086512  0.02424383    -0.03500
C729        C  0.68940421  0.24356741  0.03692391     0.08700
C730        C  0.70890393  0.26288104  0.05325599     0.02500
H731        H  0.70214884  0.20246572  0.00850906     0.10200
H732        H  0.70294637  0.28446590  0.06472247     0.09200
N733        N  0.82557322  0.20008589  0.99940597    -0.34600
N734        N  0.84265627  0.22395752  0.99075002    -0.26800
C735        C  0.87024868  0.21373747  0.97990546    -0.02000
C736        C  0.87113523  0.18190770  0.98207350     0.06600
C737        C  0.84229376  0.17390091  0.99456056     0.04700
H738        H  0.88841025  0.22847829  0.97080115     0.09800
H739        H  0.83372084  0.15080125  0.99864712     0.08600
N740        N  0.55886601  0.98343961  0.26993543    -0.35100
N741        N  0.55364397  0.05006850  0.27318391    -0.55600
N742        N  0.48746295  0.04538389  0.27642022    -0.35100
N743        N  0.49220713  0.97870660  0.27208049    -0.55600
C744        C  0.58524453  0.99207522  0.25487408     0.28500
C745        C  0.55341283  0.95362686  0.26225376     0.28500
C746        C  0.49094570  0.07642256  0.27554542     0.28500
C747        C  0.45835468  0.03867344  0.26703435     0.28500
C748        C  0.58477964  0.04665629  0.27244413     0.37100
C749        C  0.54759632  0.07879071  0.28442387     0.37100
C750        C  0.49908737  0.94914312  0.27917383     0.37100
C751        C  0.46112748  0.98173597  0.27463740     0.37100
C752        C  0.59590676  0.96760452  0.23648003    -0.20400
C753        C  0.57633185  0.94306198  0.24187065    -0.20400
C754        C  0.46340370  0.08977985  0.26624455    -0.20400
C755        C  0.44297413  0.06605496  0.26073185    -0.20400
C756        C  0.59869336  0.07338488  0.28338611    -0.21400
C757        C  0.57519615  0.09371538  0.29093699    -0.21400
C758        C  0.47211654  0.93310919  0.28610172    -0.21400
C759        C  0.44805723  0.95366044  0.28293350    -0.21400
C760        C  0.60055250  0.02076780  0.25939205    -0.16800
C761        C  0.52875017  0.93585693  0.27443650    -0.16800
C762        C  0.44450048  0.00888321  0.26729685    -0.16800
C763        C  0.51791296  0.09285287  0.28435690    -0.16800
H764        H  0.61561200  0.96724039  0.22061204     0.16100
H765        H  0.57831102  0.92043556  0.23114030     0.16100
H766        H  0.45821694  0.11409302  0.26395015     0.16100
H767        H  0.41912102  0.06906369  0.25408744     0.16100
H768        H  0.62321832  0.07803721  0.28531931     0.14400
H769        H  0.57840868  0.11719199  0.29900459     0.14400
H770        H  0.46964590  0.90879822  0.29109165     0.14400
H771        H  0.42374528  0.94823251  0.28595106     0.14400
H772        H  0.54699382  0.99582383  0.28731362     0.27700
H773        H  0.50303430  0.03019733  0.28631898     0.27700
N774        N  0.82558069  0.03499087  0.30440396    -0.25800
N775        N  0.79913766  0.05043069  0.30557281    -0.33600
C776        C  0.78957711  0.05342495  0.33535549     0.02600
C777        C  0.81084756  0.03894162  0.35406534     0.08600
C778        C  0.83348184  0.02767370  0.33366212    -0.04500
H779        H  0.76714729  0.06251724  0.34235461     0.09300
H780        H  0.85293270  0.01314799  0.33946999     0.10500
Cu781      Cu  0.77064122  0.05571600  0.26801386     0.44200
Cu782      Cu  0.84531552  0.01894273  0.26259588     0.42000
Cu783      Cu  0.78246689  0.99155678  0.21607865     0.43900
N784        N  0.73475169  0.03306375  0.24669890    -0.33200
N785        N  0.73863626  0.00691470  0.23097579    -0.27400
C786        C  0.71087654  0.99292183  0.22846105    -0.03500
C787        C  0.68860279  0.01157184  0.24275655     0.08700
C788        C  0.70459153  0.03679127  0.25399461     0.02500
H789        H  0.70734030  0.97036363  0.21808951     0.10200
H790        H  0.69549931  0.05478119  0.26924634     0.09200
N791        N  0.82904086  0.98825277  0.20203090    -0.34600
N792        N  0.85220218  0.99973243  0.21827102    -0.26800
C793        C  0.87893642  0.99559515  0.20195663    -0.02000
C794        C  0.87223330  0.98051947  0.17422810     0.06600
C795        C  0.84046500  0.97609839  0.17526804     0.04700
H796        H  0.90158979  0.00221454  0.21009297     0.09800
H797        H  0.82660476  0.96494540  0.15768155     0.08600
N798        N  0.52043115  0.31796861  0.24677758    -0.25800
N799        N  0.50478128  0.29197440  0.24383001    -0.33600
C800        C  0.50179583  0.28476981  0.21364513     0.02600
C801        C  0.51633509  0.30724491  0.19612723     0.08600
C802        C  0.52770478  0.32822257  0.21791789    -0.04500
H803        H  0.49124301  0.26366814  0.20539709     0.09300
H804        H  0.54161978  0.34844429  0.21312960     0.10500
Cu805      Cu  0.49544402  0.26252723  0.27967957     0.44200
Cu806      Cu  0.53308638  0.33391277  0.29123171     0.42000
Cu807      Cu  0.53842652  0.26919469  0.34819422     0.43900
N808        N  0.50702455  0.22489761  0.30546154    -0.33200
N809        N  0.52460211  0.22617334  0.33027245    -0.27400
C810        C  0.53221179  0.19697075  0.33810032    -0.03500
C811        C  0.51905437  0.17670517  0.31670764     0.08700
C812        C  0.50313907  0.19546114  0.29657321     0.02500
H813        H  0.54735295  0.19098594  0.35694775     0.10200
H814        H  0.49077066  0.18862406  0.27595581     0.09200
N815        N  0.54528513  0.31618688  0.35877112    -0.34600
N816        N  0.54227870  0.33935094  0.33901868    -0.26800
C817        C  0.54801994  0.36613718  0.35425139    -0.02000
C818        C  0.55517761  0.35957162  0.38484032     0.06600
C819        C  0.55360199  0.32772425  0.38665472     0.04700
H820        H  0.54876203  0.38857639  0.34339463     0.09800
H821        H  0.55885633  0.31382835  0.40670054     0.08600
N822        N  0.25426557  0.98899821  0.54966704    -0.35100
N823        N  0.25490166  0.05490818  0.54318239    -0.55600
N824        N  0.24633966  0.04841864  0.47623152    -0.35100
N825        N  0.25269186  0.98309113  0.48138118    -0.55600
C826        C  0.26033398  0.99861815  0.57899146     0.28500
C827        C  0.26909046  0.96169658  0.54503905     0.28500
C828        C  0.25701866  0.07780167  0.47753863     0.28500
C829        C  0.24580797  0.03978499  0.44587941     0.28500
C830        C  0.24781888  0.05375205  0.57391833     0.37100
C831        C  0.25332104  0.08492728  0.53508298     0.37100
C832        C  0.25305519  0.95329470  0.49043364     0.37100
C833        C  0.23869287  0.98371036  0.45339602     0.37100
C834        C  0.27889704  0.97721387  0.59346310    -0.20400
C835        C  0.28508240  0.95427097  0.57180388    -0.20400
C836        C  0.26309012  0.08795646  0.44745968    -0.20400
C837        C  0.25558469  0.06412772  0.42750302    -0.20400
C838        C  0.24145979  0.08318736  0.58534215    -0.21400
C839        C  0.24529866  0.10298046  0.56078914    -0.21400
C840        C  0.23937442  0.93474762  0.46814739    -0.21400
C841        C  0.22958013  0.95409844  0.44502150    -0.21400
C842        C  0.25079328  0.02706599  0.59229293    -0.16800
C843        C  0.26655957  0.94262043  0.51807167    -0.16800
C844        C  0.23675507  0.01041323  0.43452999    -0.16800
C845        C  0.25955409  0.09627751  0.50487108    -0.16800
H846        H  0.28816895  0.97868853  0.61668642     0.16100
H847        H  0.29979835  0.93446152  0.57555643     0.16100
H848        H  0.27173701  0.11031910  0.44043684     0.16100
H849        H  0.25780790  0.06445059  0.40237699     0.16100
H850        H  0.23550781  0.08986278  0.60903368     0.14400
H851        H  0.24213054  0.12777343  0.56169265     0.14400
H852        H  0.23617227  0.90997308  0.46886633     0.14400
H853        H  0.21754443  0.94696208  0.42428458     0.14400
H854        H  0.23869066  0.99941940  0.53476938     0.27700
H855        H  0.23703228  0.03580294  0.49454581     0.27700
N856        N  0.31337890  0.02229691  0.81141744    -0.25800
N857        N  0.31382447  0.04047864  0.78694264    -0.33600
C858        C  0.34321921  0.04546277  0.77770335     0.02600
C859        C  0.36260495  0.02962298  0.79732455     0.08600
C860        C  0.34287692  0.01519281  0.81852463    -0.04500
H861        H  0.34965082  0.05759023  0.75668423     0.09300
H862        H  0.34943835  0.99945414  0.83669481     0.10500
Cu863      Cu  0.27508561  0.04963263  0.76166203     0.44200
Cu864      Cu  0.27133718  0.00630831  0.83003925     0.42000
Cu865      Cu  0.20537963  0.00675610  0.77622156     0.43900
N866        N  0.24597420  0.03567591  0.72709866    -0.33200
N867        N  0.22134341  0.01800487  0.73117806    -0.27400
C868        C  0.21198784  0.00813455  0.70287122    -0.03500
C869        C  0.23184007  0.02031828  0.68024469     0.08700
C870        C  0.25298680  0.03759590  0.69670896     0.02500
H871        H  0.19290858  0.99244042  0.69907071     0.10200
H872        H  0.27341793  0.04907326  0.68767598     0.09200
N873        N  0.20112779  0.99886555  0.82441717    -0.34600
N874        N  0.22524486  0.99745774  0.84308675    -0.26800
C875        C  0.21525148  0.98989781  0.87184779    -0.02000
C876        C  0.18336308  0.98702253  0.87176874     0.06600
C877        C  0.17509918  0.99282811  0.84126266     0.04700
H878        H  0.23023292  0.98642393  0.89146427     0.09800
H879        H  0.15210306  0.99129201  0.83171786     0.08600
N880        N  0.98718423  0.26456768  0.55396970    -0.35100
N881        N  0.98281883  0.26838741  0.48790475    -0.55600
N882        N  0.05068269  0.26132166  0.48352209    -0.35100
N883        N  0.05388611  0.25519637  0.54945560    -0.55600
C884        C  0.95617128  0.26619427  0.55006296     0.28500
C885        C  0.99210032  0.25038029  0.58139963     0.28500
C886        C  0.04275277  0.25437125  0.45391650     0.28500
C887        C  0.08118342  0.25499199  0.48648615     0.28500
C888        C  0.95701395  0.28450296  0.49604868     0.37100
C889        C  0.98931387  0.27509431  0.45791339     0.37100
C890        C  0.05008592  0.25190603  0.58050724     0.37100
C891        C  0.08458776  0.25891368  0.54382216     0.37100
C892        C  0.94107588  0.25298614  0.57533689    -0.20400
C893        C  0.96371893  0.24290048  0.59504488    -0.20400
C894        C  0.06880300  0.24363691  0.43775266    -0.20400
C895        C  0.09306329  0.24431920  0.45819381    -0.20400
C896        C  0.94754403  0.30217760  0.47116748    -0.21400
C897        C  0.96744088  0.29543026  0.44669547    -0.21400
C898        C  0.07883788  0.25223153  0.59456647    -0.21400
C899        C  0.10057100  0.25712221  0.57144114    -0.21400
C900        C  0.94148329  0.28120291  0.52514666    -0.16800
C901        C  0.02115149  0.24717499  0.59597364    -0.16800
C902        C  0.09851170  0.26012785  0.51377193    -0.16800
C903        C  0.01386571  0.26166574  0.44043755    -0.16800
H904        H  0.91633207  0.25094260  0.57928366     0.16100
H905        H  0.95960686  0.23205771  0.61731875     0.16100
H906        H  0.07082635  0.23749174  0.41335960     0.16100
H907        H  0.11670144  0.23778278  0.45256535     0.16100
H908        H  0.92867063  0.31857848  0.47050156     0.14400
H909        H  0.96647878  0.30532250  0.42370769     0.14400
H910        H  0.08399426  0.24876215  0.61882227     0.14400
H911        H  0.12538695  0.25758528  0.57456433     0.14400
H912        H  0.00354715  0.27632073  0.54068463     0.27700
H913        H  0.03717154  0.27346381  0.49964029     0.27700
N914        N  0.02255615  0.32442794  0.82509819    -0.25800
N915        N  0.04185463  0.32602329  0.80102534    -0.33600
C916        C  0.04578930  0.35550323  0.79269513     0.02600
C917        C  0.02799465  0.37408355  0.81225995     0.08600
C918        C  0.01360262  0.35356162  0.83276718    -0.04500
H919        H  0.05830466  0.36232836  0.77188005     0.09300
H920        H  0.99640747  0.35927537  0.85051226     0.10500
Cu921      Cu  0.05289900  0.28924827  0.77284429     0.44200
Cu922      Cu  0.00725407  0.28078640  0.84076267     0.42000
Cu923      Cu  0.00275206  0.22539949  0.77397159     0.43900
N924        N  0.04197124  0.26516375  0.73336959    -0.33200
N925        N  0.02209415  0.24204495  0.73269141    -0.27400
C926        C  0.01598485  0.23518878  0.70268551    -0.03500
C927        C  0.03263878  0.25556241  0.68403562     0.08700
C928        C  0.04869167  0.27408202  0.70429958     0.02500
H929        H  0.99939206  0.21807418  0.69519562     0.10200
H930        H  0.06280734  0.29389573  0.69843767     0.09200
N931        N  0.99286106  0.21456152  0.82029198    -0.34600
N932        N  0.99603336  0.23335540  0.84459818    -0.26800
C933        C  0.98980375  0.21720854  0.87079465    -0.02000
C934        C  0.98189600  0.18718767  0.86240074     0.06600
C935        C  0.98386010  0.18658783  0.83031074     0.04700
H936        H  0.98997524  0.22684785  0.89411238     0.09800
H937        H  0.97935945  0.16700450  0.81523009     0.08600
N938        N  0.23008458  0.31033883  0.52316263    -0.25800
N939        N  0.23031703  0.28798366  0.50204019    -0.33600
C940        C  0.20150079  0.27714407  0.49834834     0.02600
C941        C  0.18164983  0.29345204  0.51799311     0.08600
C942        C  0.20053882  0.31455028  0.53326964    -0.04500
H943        H  0.19598176  0.25753122  0.48371566     0.09300
H944        H  0.19351169  0.33060989  0.55150180     0.10500
Cu945      Cu  0.26956005  0.26575938  0.48641453     0.44200
Cu946      Cu  0.27175546  0.32941330  0.53919060     0.42000
Cu947      Cu  0.32766949  0.26645233  0.54332790     0.43900
N948        N  0.29173216  0.22642265  0.49986482    -0.33200
N949        N  0.31130932  0.22561036  0.52312756    -0.27400
C950        C  0.31455191  0.19597757  0.53202059    -0.03500
C951        C  0.29572882  0.17756766  0.51360815     0.08700
C952        C  0.28181909  0.19779867  0.49340820     0.02500
H953        H  0.32791407  0.18862246  0.55171901     0.10200
H954        H  0.26366123  0.19278096  0.47709492     0.09200
N955        N  0.33820633  0.31257928  0.55350539    -0.34600
N956        N  0.31855929  0.33589367  0.55063244    -0.26800
C957        C  0.33371188  0.36256343  0.55660568    -0.02000
C958        C  0.36415169  0.35556092  0.56389311     0.06600
C959        C  0.36595330  0.32372031  0.56201302     0.04700
H960        H  0.32318243  0.38525512  0.55647330     0.09800
H961        H  0.38619576  0.30964371  0.56609235     0.08600
N962        N  0.02505709  0.30467284  0.22481199    -0.25800
N963        N  0.00476428  0.30573720  0.24815594    -0.33600
C964        C  0.00110120  0.33503105  0.25794245     0.02600
C965        C  0.02001485  0.35375822  0.24000957     0.08600
C966        C  0.03491597  0.33371854  0.21915478    -0.04500
H967        H  0.98736877  0.34167501  0.27819740     0.09300
H968        H  0.05255211  0.33967975  0.20207052     0.10500
Cu969      Cu  0.98977244  0.26784110  0.27243686     0.44200
Cu970      Cu  0.04022898  0.26245529  0.20560123     0.42000
Cu971      Cu  0.03966120  0.20325011  0.26627870     0.43900
N972        N  0.99812978  0.23947930  0.30934267    -0.33200
N973        N  0.01816600  0.21641193  0.30806358    -0.27400
C974        C  0.02468717  0.20789505  0.33734507    -0.03500
C975        C  0.00848830  0.22716077  0.35781188     0.08700
C976        C  0.99161732  0.24659096  0.33916810     0.02500
H977        H  0.04215885  0.19109541  0.34328135     0.10200
H978        H  0.97789464  0.26634597  0.34653975     0.09200
N979        N  0.05368972  0.19545676  0.22025517    -0.34600
N980        N  0.05225541  0.21601796  0.19766991    -0.26800
C981        C  0.06048029  0.20204118  0.17051026    -0.02000
C982        C  0.06779362  0.17147322  0.17655356     0.06600
C983        C  0.06356532  0.16832707  0.20826497     0.04700
H984        H  0.06184791  0.21345160  0.14823289     0.09800
H985        H  0.06687530  0.14756519  0.22164228     0.08600
N986        N  0.22187449  0.99892323  0.29844536    -0.25800
N987        N  0.24603133  0.98012226  0.29734606    -0.33600
C988        C  0.25373559  0.97206907  0.32624535     0.02600
C989        C  0.23416282  0.98685158  0.34714224     0.08600
C990        C  0.21388558  0.00367355  0.32876706    -0.04500
H991        H  0.27436122  0.95912203  0.33179865     0.09300
H992        H  0.19601657  0.01951216  0.33682503     0.10500
Cu993      Cu  0.27586338  0.97606676  0.25987835     0.44200
Cu994      Cu  0.20561603  0.01932567  0.25723685     0.42000
Cu995      Cu  0.27138723  0.03321033  0.20273845     0.43900
N996        N  0.31470933  0.99360900  0.23823044    -0.33200
N997        N  0.31388590  0.01612558  0.21776792    -0.27400
C998        C  0.34312266  0.02612544  0.21247963    -0.03500
C999        C  0.36296030  0.00942062  0.23117696     0.08700
C1000       C  0.34402001  0.98891330  0.24694694     0.02500
H1001       H  0.34925956  0.04533463  0.19768975     0.10200
H1002       H  0.35065859  0.97281356  0.26474998     0.09200
N1003       N  0.22485489  0.04153116  0.19260984    -0.34600
N1004       N  0.20082321  0.03555962  0.21122348    -0.26800
C1005       C  0.17451330  0.04261354  0.19600910    -0.02000
C1006       C  0.18252620  0.05383960  0.16673433     0.06600
C1007       C  0.21452656  0.05300257  0.16569204     0.04700
H1008       H  0.15139041  0.04090165  0.20594792     0.09800
H1009       H  0.22935664  0.06037702  0.14662534     0.08600
N1010       N  0.31823268  0.22413720  0.01962535    -0.25800
N1011       N  0.31873015  0.25104025  0.00542032    -0.33600
C1012       C  0.34805531  0.26080964  0.00234327     0.02600
C1013       C  0.36740944  0.23921807  0.01545445     0.08600
C1014       C  0.34771360  0.21593894  0.02581560    -0.04500
H1015       H  0.35428285  0.28333981  0.99363538     0.09300
H1016       H  0.35412879  0.19596496  0.03923363     0.10500
Cu1017     Cu  0.28087457  0.27945303  0.00168526     0.44200
Cu1018     Cu  0.27630192  0.20525685  0.03543186     0.42000
Cu1019     Cu  0.22793458  0.26955996  0.06459143     0.43900
N1020       N  0.25872703  0.31600862  0.02322182    -0.33200
N1021       N  0.24195698  0.31314039  0.04902712    -0.27400
C1022       C  0.23776524  0.34147750  0.06182138    -0.03500
C1023       C  0.25230429  0.36296511  0.04273829     0.08700
C1024       C  0.26529042  0.34589693  0.01856167     0.02500
H1025       H  0.22588217  0.34601783  0.08376281     0.10200
H1026       H  0.28082738  0.35422416  0.00049676     0.09200
N1027       N  0.21475878  0.22300203  0.06566039    -0.34600
N1028       N  0.23121715  0.19994729  0.05334279    -0.26800
C1029       C  0.21442692  0.17372205  0.05521043    -0.02000
C1030       C  0.18628239  0.18054213  0.06976735     0.06600
C1031       C  0.18748142  0.21186829  0.07624229     0.04700
H1032       H  0.22237485  0.15128846  0.04713065     0.09800
H1033       H  0.16944717  0.22574626  0.08723003     0.08600
C1034       C  0.46360248  0.46172451  0.56768168     0.88000
C1035       C  0.48174688  0.43931509  0.58840748    -0.52200
C1036       C  0.46373066  0.42245749  0.60844620     0.10900
C1037       C  0.42888510  0.42886978  0.60553835     0.21900
C1038       C  0.43979603  0.44095995  0.55114423    -0.53000
C1039       C  0.42174522  0.42360436  0.57086500     0.11000
C1040       C  0.44329101  0.48114807  0.59084895    -0.52500
C1041       C  0.42510701  0.46391729  0.61058749     0.11600
H1042       H  0.50681766  0.43707500  0.58732763     0.16100
H1043       H  0.41416605  0.41469780  0.62120791     0.01900
H1044       H  0.43742074  0.44011795  0.52602488     0.16400
H1045       H  0.44211584  0.50612442  0.59128532     0.16200
C1046       C  0.57359430  0.46906126  0.48071497     0.88000
C1047       C  0.59105591  0.48791622  0.45552705    -0.52200
C1048       C  0.60776236  0.47011938  0.43449245     0.10900
C1049       C  0.60496088  0.43510344  0.44035040     0.21900
C1050       C  0.55351390  0.44634731  0.46187790    -0.53000
C1051       C  0.56986355  0.42853903  0.44072477     0.11000
C1052       C  0.59911634  0.44876122  0.49504402    -0.52500
C1053       C  0.61533205  0.43087905  0.47404470     0.11600
H1054       H  0.59060750  0.51296755  0.45471987     0.16100
H1055       H  0.61824246  0.42084786  0.42316199     0.01900
H1056       H  0.52851912  0.44481986  0.46476463     0.16400
H1057       H  0.60404481  0.44864792  0.51975422     0.16200
C1058       C  0.57748745  0.58273096  0.56525063     0.88000
C1059       C  0.55695921  0.60080694  0.58898820    -0.52200
C1060       C  0.57322303  0.61786552  0.61017827     0.10900
C1061       C  0.60854454  0.61524723  0.60566682     0.21900
C1062       C  0.59818668  0.60789423  0.55061124    -0.53000
C1063       C  0.61447507  0.62486557  0.57172166     0.11000
C1064       C  0.59994651  0.56346072  0.58509536    -0.52500
C1065       C  0.61623276  0.58052821  0.60642482     0.11600
H1066       H  0.53182178  0.60112040  0.58818621     0.16100
H1067       H  0.62155596  0.62950789  0.62246308     0.01900
H1068       H  0.59948362  0.61225546  0.52576818     0.16400
H1069       H  0.60303135  0.53871256  0.58210401     0.16200
C1070       C  0.45721977  0.57410744  0.46961576     0.88000
C1071       C  0.43597601  0.56088430  0.44408643    -0.52200
C1072       C  0.42083672  0.58288345  0.42745819     0.10900
C1073       C  0.42819284  0.61601518  0.43763982     0.21900
C1074       C  0.47886588  0.59690666  0.45238917    -0.53000
C1075       C  0.46365253  0.61867747  0.43547893     0.11000
C1076       C  0.43529540  0.59479743  0.48950968    -0.52500
C1077       C  0.42011959  0.61688706  0.47274149     0.11600
H1078       H  0.43326825  0.53634443  0.43945733     0.16100
H1079       H  0.41572835  0.63355195  0.42387353     0.01900
H1080       H  0.50397446  0.59558283  0.45310984     0.16400
H1081       H  0.43154713  0.59173323  0.51434176     0.16200
C1082       C  0.51481669  0.52803533  0.52490652    -0.01000
C1083       C  0.47426485  0.54861867  0.48729103    -0.14900
C1084       C  0.49651723  0.55398071  0.50863109    -0.30100
H1085       H  0.46898237  0.52474944  0.48146090     0.14100
H1086       H  0.50180584  0.57790427  0.51426322     0.14700
C1087       C  0.55909559  0.56456721  0.54075345    -0.14900
C1088       C  0.53751124  0.54307886  0.54820447    -0.30100
H1089       H  0.56214353  0.57061046  0.51640919     0.14100
H1090       H  0.53486071  0.53748616  0.57274099     0.14700
C1091       C  0.55553436  0.48794980  0.50581199    -0.14900
C1092       C  0.53270663  0.50854621  0.49976325    -0.30100
H1093       H  0.56146736  0.48447566  0.53000512     0.14100
H1094       H  0.52765127  0.51256595  0.47543806     0.14700
C1095       C  0.48549079  0.47885537  0.54465494    -0.14900
C1096       C  0.49107045  0.50974469  0.54497701    -0.30100
H1097       H  0.49826061  0.46446638  0.52807898     0.14100
H1098       H  0.47863233  0.52390036  0.56189791     0.14700
C1099       C  0.38914094  0.37652723  0.57435807    -0.14900
C1100       C  0.39637590  0.40304963  0.55982501    -0.30100
H1101       H  0.40344357  0.36868297  0.59330021     0.14100
H1102       H  0.38422968  0.40925910  0.53882825     0.14700
C1103       C  0.14796234  0.28820365  0.52321611    -0.14900
C1104       C  0.13279533  0.26405325  0.51043737    -0.30100
H1105       H  0.13524069  0.30476009  0.53766600     0.14100
H1106       H  0.14536760  0.24781830  0.49562061     0.14700
C1107       C  0.00955435  0.25777770  0.40637733    -0.14900
C1108       C  0.01330027  0.23039768  0.39164002    -0.30100
H1109       H  0.00182096  0.27766350  0.39344420     0.14100
H1110       H  0.02126557  0.21040887  0.40436486     0.14700
C1111       C  0.02082842  0.23997917  0.62977531    -0.14900
C1112       C  0.03178765  0.26055827  0.65025092    -0.30100
H1113       H  0.01027224  0.21865891  0.63774527     0.14100
H1114       H  0.04158308  0.28204507  0.64166542     0.14700
C1115       C  0.28868083  0.14435437  0.51779906    -0.14900
C1116       C  0.26690520  0.12967959  0.50102839    -0.30100
H1117       H  0.30136495  0.13176783  0.53527113     0.14100
H1118       H  0.25481362  0.14192509  0.48297868     0.14700
C1119       C  0.22706013  0.00819030  0.40116761    -0.14900
C1120       C  0.23929757  0.98723037  0.38121914    -0.30100
H1121       H  0.21231884  0.02630552  0.39222087     0.14100
H1122       H  0.25625936  0.97093978  0.38976809     0.14700
C1123       C  0.25040396  0.03108056  0.62674309    -0.14900
C1124       C  0.23228540  0.01435405  0.64611561    -0.30100
H1125       H  0.26410091  0.04992593  0.63599071     0.14100
H1126       H  0.21718196  0.99665664  0.63670684     0.14700
C1127       C  0.56874580  0.38065225  0.40832243    -0.14900
C1128       C  0.55474664  0.40678946  0.41845864    -0.30100
H1129       H  0.59054626  0.37370093  0.41824196     0.14100
H1130       H  0.53157873  0.41217581  0.41058520     0.14700
C1131       C  0.51526323  0.12702321  0.28815138    -0.14900
C1132       C  0.52315713  0.14268242  0.31414934    -0.30100
H1133       H  0.50552480  0.13937242  0.26878651     0.14100
H1134       H  0.53303436  0.13042128  0.33358022     0.14700
C1135       C  0.41054403  0.00570853  0.26214875    -0.14900
C1136       C  0.39654916  0.01450951  0.23580040    -0.30100
H1137       H  0.39702340  0.99444555  0.28024881     0.14100
H1138       H  0.40981922  0.02602981  0.21762826     0.14700
C1139       C  0.65604846  0.00375497  0.25014638    -0.14900
C1140       C  0.63367107  0.02543509  0.24933435    -0.30100
H1141       H  0.65106925  0.98039389  0.25752114     0.14100
H1142       H  0.64039908  0.04852969  0.24220336     0.14700
C1143       C  0.51553193  0.28183743  0.14416641    -0.14900
C1144       C  0.52125841  0.30713029  0.16180594    -0.30100
H1145       H  0.50644721  0.26115164  0.15497850     0.14100
H1146       H  0.53020225  0.32789624  0.15090563     0.14700
C1147       C  0.41565745  0.26998117  0.01828261    -0.14900
C1148       C  0.40102608  0.24263289  0.02156073    -0.30100
H1149       H  0.40278428  0.28986312  0.01050595     0.14100
H1150       H  0.41382601  0.22259721  0.02936432     0.14700
C1151       C  0.64083842  0.27438887  0.03921162    -0.14900
C1152       C  0.65584218  0.24807965  0.03113283    -0.30100
H1153       H  0.65323835  0.29301530  0.05051124     0.14100
H1154       H  0.64317675  0.22945896  0.02000879     0.14700
C1155       C  0.37423417  0.55805132  0.40533948    -0.14900
C1156       C  0.39933585  0.57614571  0.40164727    -0.30100
H1157       H  0.36940796  0.54782839  0.42790089     0.14100
H1158       H  0.40270284  0.58877888  0.38014790     0.14700
C1159       C  0.14918454  0.48539602  0.29480336    -0.14900
C1160       C  0.12825765  0.50557787  0.30635956    -0.30100
H1161       H  0.14245346  0.46984873  0.27609997     0.14100
H1162       H  0.13539287  0.52280901  0.32330339     0.14700
C1163       C  0.02542959  0.38737385  0.24429899    -0.14900
C1164       C  0.00717634  0.40480909  0.26324312    -0.30100
H1165       H  0.04432148  0.39809259  0.23136271     0.14100
H1166       H  0.98734130  0.39441653  0.27488325     0.14700
C1167       C  0.03688595  0.62968077  0.26291756    -0.14900
C1168       C  0.02162748  0.64703565  0.24211873    -0.30100
H1169       H  0.05433892  0.64035824  0.27731592     0.14100
H1170       H  0.00504397  0.63620399  0.22673400     0.14700
C1171       C  0.27400830  0.52410338  0.14346604    -0.14900
C1172       C  0.30028201  0.53071024  0.15859847    -0.30100
H1173       H  0.25535058  0.51238448  0.15574248     0.14100
H1174       H  0.31933080  0.54226290  0.14669882     0.14700
C1175       C  0.26019019  0.41642799  0.02533465    -0.14900
C1176       C  0.25738507  0.39621899  0.04894131    -0.30100
H1177       H  0.25798267  0.40745084  0.00176414     0.14100
H1178       H  0.26000126  0.40347163  0.07294502     0.14700
C1179       C  0.27821479  0.64179865  0.03198931    -0.14900
C1180       C  0.25361696  0.65841586  0.02293187    -0.30100
H1181       H  0.29805974  0.65333603  0.04198518     0.14100
H1182       H  0.23381873  0.64678901  0.01286025     0.14700
C1183       C  0.46604472  0.39664594  0.65961488    -0.14900
C1184       C  0.47668524  0.39926143  0.63011050    -0.30100
H1185       H  0.44894379  0.41302022  0.66847606     0.14100
H1186       H  0.49601557  0.38502833  0.62206637     0.14700
C1187       C  0.51729065  0.31004302  0.89823558    -0.14900
C1188       C  0.53900252  0.31220234  0.92035394    -0.30100
H1189       H  0.49458116  0.30054209  0.90331557     0.14100
H1190       H  0.56160305  0.32091631  0.91324262     0.14700
C1191       C  0.54148001  0.13883502  0.75428107    -0.14900
C1192       C  0.52527858  0.15723241  0.73532161    -0.30100
H1193       H  0.55974086  0.14859849  0.76836799     0.14100
H1194       H  0.50827401  0.14715141  0.71988683     0.14700
C1195       C  0.65484888  0.02902569  0.79151020    -0.14900
C1196       C  0.63791661  0.01113299  0.77231251    -0.30100
H1197       H  0.64365271  0.04773616  0.80444220     0.14100
H1198       H  0.64871961  0.99149739  0.76059301     0.14700
C1199       C  0.41359685  0.04141867  0.77300051    -0.14900
C1200       C  0.39654060  0.02520014  0.79369222    -0.30100
H1201       H  0.40292262  0.05987188  0.76000891     0.14100
H1202       H  0.40771138  0.00799329  0.80796203     0.14700
C1203       C  0.80760161  0.03192962  0.38764245    -0.14900
C1204       C  0.78481540  0.04410109  0.40567593    -0.30100
H1205       H  0.82429714  0.01634859  0.39784350     0.14100
H1206       H  0.76904673  0.06103278  0.39623977     0.14700
C1207       C  0.80001212  0.00242768  0.62802927    -0.14900
C1208       C  0.82088479  0.01706084  0.64594211    -0.30100
H1209       H  0.78622527  0.98385268  0.63780589     0.14100
H1210       H  0.83587167  0.03453921  0.63578292     0.14700
C1211       C  0.64472358  0.38174379  0.47145248    -0.14900
C1212       C  0.64162651  0.41062292  0.48293589    -0.30100
H1213       H  0.62677482  0.37240915  0.45676990     0.14100
H1214       H  0.65773100  0.41904272  0.50021943     0.14700
C1215       C  0.74663894  0.15045850  0.52347077    -0.14900
C1216       C  0.76774600  0.13454231  0.53969333    -0.30100
H1217       H  0.73352212  0.13869405  0.50554792     0.14100
H1218       H  0.78010867  0.14581287  0.55839835     0.14700
C1219       C  0.88660583  0.29431691  0.51017592    -0.14900
C1220       C  0.90928561  0.29310234  0.53123637    -0.30100
H1221       H  0.89047214  0.28710358  0.48622259     0.14100
H1222       H  0.90336152  0.29966168  0.55510285     0.14700
C1223       C  0.39159054  0.46339196  0.65833170    -0.14900
C1224       C  0.40165181  0.47797313  0.63251619    -0.30100
H1225       H  0.40237502  0.44190140  0.66503450     0.14100
H1226       H  0.39289157  0.50092505  0.62760404     0.14700
C1227       C  0.30351952  0.50741835  0.89855597    -0.14900
C1228       C  0.30996168  0.52867598  0.92042596    -0.30100
H1229       H  0.29125889  0.48631935  0.90423163     0.14100
H1230       H  0.32138183  0.54977974  0.91293773     0.14700
C1231       C  0.13547652  0.55113991  0.76391334    -0.14900
C1232       C  0.15304272  0.53466868  0.74341769    -0.30100
H1233       H  0.14614260  0.56889041  0.77814836     0.14100
H1234       H  0.14196959  0.51816598  0.72800230     0.14700
C1235       C  0.02188690  0.40771376  0.80843303    -0.14900
C1236       C  0.03777784  0.42469459  0.78730011    -0.30100
H1237       H  0.00394884  0.41859454  0.82279175     0.14100
H1238       H  0.05676895  0.41423169  0.77413093     0.14700
C1239       C  0.01837074  0.66366977  0.80629046    -0.14900
C1240       C  0.00503442  0.64717802  0.78335784    -0.30100
H1241       H  0.03476401  0.65246627  0.82145264     0.14100
H1242       H  0.98766990  0.65786584  0.76898153     0.14700
C1243       C  0.02838891  0.78403722  0.41811303    -0.14900
C1244       C  0.02185719  0.80914301  0.40120336    -0.30100
H1245       H  0.03726402  0.76330468  0.40674603     0.14100
H1246       H  0.01278669  0.82980202  0.41266103     0.14700
C1247       C  0.01063539  0.78607448  0.64558080    -0.14900
C1248       C  0.01801259  0.81275346  0.66002381    -0.30100
H1249       H  0.99916165  0.76800796  0.65867911     0.14100
H1250       H  0.02933199  0.83112017  0.64710287     0.14700
C1251       C  0.39043888  0.66601050  0.47546826    -0.14900
C1252       C  0.39558225  0.63741677  0.48639543    -0.30100
H1253       H  0.40632667  0.67566154  0.45829004     0.14100
H1254       H  0.38151276  0.62883786  0.50564130     0.14700
C1255       C  0.13371069  0.77010427  0.53976783    -0.14900
C1256       C  0.14689929  0.74261102  0.53291336    -0.30100
H1257       H  0.14742976  0.78851810  0.54984264     0.14100
H1258       H  0.13323785  0.72424376  0.52259443     0.14700
C1259       C  0.27276542  0.89073000  0.54158108    -0.14900
C1260       C  0.27857217  0.91017432  0.51803657    -0.30100
H1261       H  0.25818282  0.89848345  0.56098375     0.14100
H1262       H  0.29096033  0.90181863  0.49741577     0.14700
C1263       C  0.64784274  0.58033217  0.65435635    -0.14900
C1264       C  0.64093415  0.56739250  0.62661624    -0.30100
H1265       H  0.63341280  0.59893063  0.66348472     0.14100
H1266       H  0.65318603  0.54671793  0.61883466     0.14700
C1267       C  0.89256203  0.53550699  0.73681926    -0.14900
C1268       C  0.90995458  0.51894103  0.75655062    -0.30100
H1269       H  0.90339407  0.55332220  0.72274490     0.14100
H1270       H  0.89939097  0.50008257  0.76932062     0.14700
C1271       C  0.75768211  0.52064234  0.90819212    -0.14900
C1272       C  0.73234991  0.52950090  0.89257151    -0.30100
H1273       H  0.77700572  0.51036581  0.89547522     0.14100
H1274       H  0.71283804  0.53991596  0.90506411     0.14700
C1275       C  0.79073139  0.65632667  0.03627468    -0.14900
C1276       C  0.79215724  0.63346098  0.01495284    -0.30100
H1277       H  0.78008603  0.65286364  0.05900483     0.14100
H1278       H  0.80263036  0.63855831  0.99238551     0.14700
C1279       C  0.78915793  0.41626939  0.02877504    -0.14900
C1280       C  0.78917574  0.39374455  0.00700242    -0.30100
H1281       H  0.79724794  0.41030520  0.05179765     0.14100
H1282       H  0.78088138  0.39777832  0.98372183     0.14700
C1283       C  0.67035856  0.79325497  0.99162933    -0.14900
C1284       C  0.65037451  0.80388558  0.01352953    -0.30100
H1285       H  0.66241332  0.77612154  0.97494045     0.14100
H1286       H  0.65878062  0.81897518  0.03186591     0.14700
C1287       C  0.41143306  0.81569613  0.02655824    -0.14900
C1288       C  0.42802047  0.79488184  0.04263149    -0.30100
H1289       H  0.42295923  0.82995576  0.00923464     0.14100
H1290       H  0.41686572  0.78183650  0.06109152     0.14700
C1291       C  0.65419903  0.47034002  0.39955800    -0.14900
C1292       C  0.62692281  0.48323986  0.40843916    -0.30100
H1293       H  0.66319008  0.45118781  0.41286160     0.14100
H1294       H  0.61928323  0.50437674  0.39748973     0.14700
C1295       C  0.73120443  0.52298610  0.15298715    -0.14900
C1296       C  0.75707047  0.52955365  0.13623785    -0.30100
H1297       H  0.71083047  0.51422036  0.14133892     0.14100
H1298       H  0.77728976  0.53814644  0.14809670     0.14700
C1299       C  0.89079200  0.51680138  0.30223334    -0.14900
C1300       C  0.90861551  0.53233313  0.28161874    -0.30100
H1301       H  0.90127250  0.49943268  0.31682629     0.14100
H1302       H  0.89851464  0.55059562  0.26794571     0.14700
C1303       C  0.47036406  0.64909945  0.38754841    -0.14900
C1304       C  0.47978856  0.64253843  0.41646654    -0.30100
H1305       H  0.45186734  0.63549562  0.37744054     0.14100
H1306       H  0.50028189  0.65367469  0.42565921     0.14700
C1307       C  0.53718029  0.74230169  0.15374901    -0.14900
C1308       C  0.55451544  0.76278560  0.13763923    -0.30100
H1309       H  0.51911080  0.72950980  0.14196972     0.14100
H1310       H  0.57333632  0.77470423  0.14904111     0.14700
C1311       C  0.52710879  0.88745051  0.30546897    -0.14900
C1312       C  0.53382975  0.90208169  0.27857917    -0.30100
H1313       H  0.51583091  0.90000163  0.32451585     0.14100
H1314       H  0.54540010  0.88950379  0.25982008     0.14700
C1315       C  0.57155939  0.64872668  0.65917074    -0.14900
C1316       C  0.55841915  0.64070038  0.63205320    -0.30100
H1317       H  0.59148386  0.63592235  0.66715064     0.14100
H1318       H  0.53676773  0.65147293  0.62547661     0.14700
C1319       C  0.52361606  0.89455012  0.73250191    -0.14900
C1320       C  0.50948045  0.91358694  0.75330431    -0.30100
H1321       H  0.54051950  0.90383611  0.71609829     0.14100
H1322       H  0.49139281  0.90468758  0.76857544     0.14700
C1323       C  0.54084619  0.75715804  0.89408445    -0.14900
C1324       C  0.52484897  0.77693472  0.91259612    -0.30100
H1325       H  0.55917014  0.74320387  0.90384712     0.14100
H1326       H  0.50570055  0.78998196  0.90325947     0.14700
C1327       C  0.65845166  0.66014489  0.58001051    -0.14900
C1328       C  0.63419574  0.65154437  0.56279073    -0.30100
H1329       H  0.66545944  0.64601749  0.59942489     0.14100
H1330       H  0.62907671  0.66383723  0.54154870     0.14700
C1331       C  0.89120841  0.75251145  0.54695372    -0.14900
C1332       C  0.91282033  0.74965545  0.52430059    -0.30100
H1333       H  0.89682681  0.76136443  0.56986020     0.14100
H1334       H  0.90561978  0.74119735  0.50163973     0.14700
C1335       C  0.74377376  0.89689490  0.51357693    -0.14900
C1336       C  0.76583794  0.91254865  0.49778738    -0.30100
H1337       H  0.72917742  0.90902319  0.53054230     0.14100
H1338       H  0.77932777  0.90106533  0.47952836     0.14700
C1339       C  0.07098318  0.90381907  0.92515970    -0.14900
C1340       C  0.07975079  0.89964308  0.89520468    -0.30100
H1341       H  0.05219221  0.89015364  0.93495880     0.14100
H1342       H  0.09624409  0.91555714  0.88474225     0.14700
C1343       C  0.15936851  0.92030127  0.98385862    -0.14900
C1344       C  0.16633365  0.89276179  0.97051543    -0.30100
H1345       H  0.17328695  0.92881523  0.00293592     0.14100
H1346       H  0.15044362  0.88295230  0.95377444     0.14700
C1347       C  0.16406729  0.97534648  0.89799690    -0.14900
C1348       C  0.13546928  0.98593337  0.90540831    -0.30100
H1349       H  0.17487390  0.95863420  0.91311505     0.14100
H1350       H  0.12569226  0.00498992  0.89253931     0.14700
C1351       C  0.04006797  0.00696496  0.99790607    -0.14900
C1352       C  0.06752354  0.99284524  0.00408945    -0.30100
H1353       H  0.02985622  0.00177483  0.97555869     0.14100
H1354       H  0.07692793  0.99542294  0.02724558     0.14700
C1355       C  0.90960618  0.91167621  0.06286975    -0.14900
C1356       C  0.90052901  0.88501735  0.07603299    -0.30100
H1357       H  0.89884806  0.91939503  0.04162270     0.14100
H1358       H  0.91349472  0.87599951  0.09541188     0.14700
C1359       C  0.89362383  0.96868500  0.14949185    -0.14900
C1360       C  0.92227889  0.97992789  0.14386049    -0.30100
H1361       H  0.88476025  0.95044723  0.13459002     0.14100
H1362       H  0.93032665  0.00002071  0.15668434     0.14700
C1363       C  0.98642005  0.89472563  0.13364938    -0.14900
C1364       C  0.97401543  0.89078135  0.16224799    -0.30100
H1365       H  0.00541055  0.88000018  0.12568540     0.14100
H1366       H  0.95743361  0.90761884  0.17136014     0.14700
C1367       C  0.99706520  0.00515024  0.03860466    -0.14900
C1368       C  0.00500838  0.98156749  0.05735800    -0.30100
H1369       H  0.97245103  0.01009134  0.03660672     0.14100
H1370       H  0.02942096  0.97604417  0.05959874     0.14700
C1371       C  0.91774438  0.07114905  0.89348293    -0.14900
C1372       C  0.88862264  0.08148493  0.88935570    -0.30100
H1373       H  0.92665885  0.05241191  0.87890900     0.14100
H1374       H  0.87874710  0.09810710  0.90582742     0.14700
C1375       C  0.90436486  0.13399783  0.98000937    -0.14900
C1376       C  0.89660379  0.16212242  0.96928808    -0.30100
H1377       H  0.89243652  0.12478015  0.00033575     0.14100
H1378       H  0.91080823  0.17227617  0.95097409     0.14700
C1379       C  0.98299941  0.15434917  0.90976166    -0.14900
C1380       C  0.97074419  0.16139535  0.88210829    -0.30100
H1381       H  0.00259019  0.16750380  0.91825618     0.14100
H1382       H  0.95346684  0.14613135  0.87220987     0.14700
C1383       C  0.00064916  0.05218333  0.00663279    -0.14900
C1384       C  0.99916691  0.05926653  0.97589765    -0.30100
H1385       H  0.98553039  0.06471618  0.02270264     0.14100
H1386       H  0.01527881  0.04820684  0.95970625     0.14700
C1387       C  0.16046561  0.15952363  0.07822308    -0.14900
C1388       C  0.15430490  0.13324786  0.06250749    -0.30100
H1389       H  0.14501733  0.16691573  0.09707604     0.14100
H1390       H  0.16785723  0.12728597  0.04178035     0.14700
C1391       C  0.13446479  0.05776594  0.13489672    -0.14900
C1392       C  0.16278525  0.06804828  0.14272108    -0.30100
H1393       H  0.12515764  0.03708352  0.14565342     0.14100
H1394       H  0.17311250  0.08672723  0.12942538     0.14700
C1395       C  0.06939333  0.14296293  0.12607667    -0.14900
C1396       C  0.07988322  0.14726269  0.15509404    -0.30100
H1397       H  0.05041122  0.15703512  0.11781073     0.14100
H1398       H  0.09650528  0.13106248  0.16440821     0.14700
C1399       C  0.04084958  0.04229350  0.04662269    -0.14900
C1400       C  0.06441696  0.06177026  0.03975079    -0.30100
H1401       H  0.03578073  0.03796039  0.07106830     0.14100
H1402       H  0.07001889  0.06579813  0.01537669     0.14700
loop_ 
_geom_bond_atom_site_label_1 
_geom_bond_atom_site_label_2 
_geom_bond_distance 
_geom_bond_site_symmetry_2 
_ccdc_geom_bond_type 
C1            C2   1.543       .  S
C1            C7   1.546       .  S
C1            C5   1.544       .  S
C1         C1400   1.534       .  S
C2            H9   1.086       .  S
C2            C3   1.369       .  D
C3            C4   1.539       .  S
C3         C1395   1.488       .  S
C4            C8   1.541       .  S
C4            C6   1.537       .  S
C4           H10   1.109       .  S
C5           H11   1.086       .  S
C5            C6   1.367       .  D
C6         C1388   1.489       .  S
C7           H12   1.086       .  S
C7            C8   1.372       .  D
C8         C1391   1.495       .  S
C13          C14   1.544       .  S
C13          C19   1.556       .  S
C13          C17   1.543       .  S
C13        C1384   1.549       .  S
C14          H21   1.086       .  S
C14          C15   1.367       .  D
C15          C16   1.537       .  S
C15        C1371   1.493       .  S
C16          C20   1.540       .  S
C16          C18   1.540       .  S
C16          H22   1.109       .  S
C17          H23   1.086   1_655  S
C17          C18   1.369       .  D
C18        C1379   1.492       .  S
C19          H24   1.083   1_556  S
C19          C20   1.376       .  D
C20        C1375   1.498       .  S
C25          C26   1.547       .  S
C25          C31   1.545       .  S
C25          C29   1.544       .  S
C25        C1368   1.535   1_655  S
C26          H33   1.086   1_565  S
C26          C27   1.371       .  D
C27          C28   1.538       .  S
C27        C1360   1.492       .  S
C28          C32   1.540       .  S
C28          C30   1.537       .  S
C28          H34   1.108       .  S
C29          H35   1.086   1_655  S
C29          C30   1.366       .  D
C30        C1363   1.489       .  S
C31          H36   1.086       .  S
C31          C32   1.371       .  D
C32        C1355   1.491       .  S
C37          C38   1.543       .  S
C37          C43   1.546       .  S
C37          C41   1.552       .  S
C37        C1352   1.544   1_556  S
C38          H45   1.086       .  S
C38          C39   1.370       .  D
C39          C40   1.540       .  S
C39        C1339   1.489       .  S
C40          C44   1.538       .  S
C40          C42   1.538       .  S
C40          H46   1.109       .  S
C41          H47   1.086   1_556  S
C41          C42   1.371       .  D
C42        C1343   1.499       .  S
C43          H48   1.086   1_565  S
C43          C44   1.372       .  D
C44        C1348   1.493       .  S
C49        C1351   1.560   1_554  S
C49        C1367   1.547   1_455  S
C49        C1383   1.559       .  S
C49        C1399   1.545       .  S
N50          N51   1.321       .  A
N50          C54   1.350       .  A
N50         Cu58   2.094       .  S
N51          C52   1.342       .  A
N51         Cu57   2.056       .  S
C52          C53   1.382       .  A
C52          H55   1.082       .  S
C53          C54   1.389       .  A
C53        C1335   1.483       .  S
C54          H56   1.082       .  S
Cu57         N60   2.055       .  S
Cu58         N68   2.094       .  S
Cu59         N61   2.062       .  S
Cu59         N67   2.062       .  S
N60          N61   1.321       .  A
N60          C64   1.340       .  A
N61          C62   1.344       .  A
C62          C63   1.381       .  A
C62          H65   1.082       .  S
C63          C64   1.379       .  A
C63        C1331   1.464       .  S
C64          H66   1.082       .  S
N67          N68   1.323       .  A
N67          C71   1.342       .  A
N68          C69   1.350       .  A
C69          C70   1.389       .  A
C69          H72   1.082       .  S
C70          C71   1.377       .  A
C70        C1327   1.474       .  S
C71          H73   1.082       .  S
N74          N75   1.321       .  A
N74          C78   1.348       .  A
N74         Cu82   2.086       .  S
N75          C76   1.342       .  A
N75         Cu81   2.056       .  S
C76          C77   1.384       .  A
C76          H79   1.081       .  S
C77          C78   1.387       .  A
C77        C1323   1.482       .  S
C78          H80   1.082       .  S
Cu81         N84   2.052       .  S
Cu82         N92   2.087       .  S
Cu83         N85   2.102       .  S
Cu83         N91   2.103       .  S
N84          N85   1.321       .  A
N84          C88   1.341       .  A
N85          C86   1.351       .  A
C86          C87   1.391       .  A
C86          H89   1.082       .  S
C87          C88   1.383       .  A
C87        C1319   1.487       .  S
C88          H90   1.081       .  S
N91          N92   1.324       .  A
N91          C95   1.352       .  A
N92          C93   1.346       .  A
C93          C94   1.382       .  A
C93          H96   1.082       .  S
C94          C95   1.389       .  A
C94        C1315   1.482       .  S
C95          H97   1.082       .  S
N98          N99   1.321       .  A
N98         C102   1.351       .  A
N98        Cu106   2.099       .  S
N99         C100   1.341       .  A
N99        Cu105   2.048       .  S
C100        C101   1.381       .  A
C100        H103   1.081       .  S
C101        C102   1.391       .  A
C101       C1311   1.484       .  S
C102        H104   1.082       .  S
Cu105       N108   2.048       .  S
Cu106       N116   2.101       .  S
Cu107       N109   2.098       .  S
Cu107       N115   2.099       .  S
N108        N109   1.320       .  A
N108        C112   1.341       .  A
N109        C110   1.351       .  A
C110        C111   1.391       .  A
C110        H113   1.082       .  S
C111        C112   1.383       .  A
C111       C1307   1.485       .  S
C112        H114   1.081       .  S
N115        N116   1.326       .  A
N115        C119   1.347       .  A
N116        C117   1.352       .  A
C117        C118   1.388       .  A
C117        H120   1.082       .  S
C118        C119   1.383       .  A
C118       C1303   1.483       .  S
C119        H121   1.082       .  S
N122        N123   1.320       .  A
N122        C126   1.350       .  A
N122       Cu130   2.098       .  S
N123        C124   1.342       .  A
N123       Cu129   2.050       .  S
C124        C125   1.384       .  A
C124        H127   1.081       .  S
C125        C126   1.390       .  A
C125       C1299   1.485       .  S
C126        H128   1.082       .  S
Cu129       N132   2.049       .  S
Cu130       N140   2.100       .  S
Cu131       N133   2.107       .  S
Cu131       N139   2.109       .  S
N132        N133   1.321       .  A
N132        C136   1.339       .  A
N133        C134   1.353       .  A
C134        C135   1.393       .  A
C134        H137   1.082       .  S
C135        C136   1.381       .  A
C135       C1295   1.487       .  S
C136        H138   1.081       .  S
N139        N140   1.326       .  A
N139        C143   1.354       .  A
N140        C141   1.347       .  A
C141        C142   1.384       .  A
C141        H144   1.082       .  S
C142        C143   1.390       .  A
C142       C1291   1.488       .  S
C143        H145   1.082       .  S
N146        C151   1.356       .  A
N146        C150   1.353       .  A
N146        H178   1.039   1_556  S
N147        C154   1.352       .  A
N147        C155   1.352   1_556  A
N148        C153   1.353       .  A
N148        C152   1.356       .  A
N148        H179   1.038       .  S
N149        C156   1.353       .  A
N149        C157   1.354       .  A
C150        C158   1.384       .  A
C150        C166   1.414       .  A
C151        C167   1.423   1_556  A
C151        C159   1.390       .  A
C152        C160   1.388       .  A
C152        C169   1.419       .  A
C153        C168   1.417       .  A
C153        C161   1.386       .  A
C154        C166   1.413       .  A
C154        C162   1.387       .  A
C155        C169   1.413       .  A
C155        C163   1.385   1_554  A
C156        C164   1.385       .  A
C156        C167   1.416       .  A
C157        C165   1.388       .  A
C157        C168   1.418       .  A
C158        C159   1.377       .  A
C158        H170   1.082       .  S
C159        H171   1.081       .  S
C160        C161   1.377       .  A
C160        H172   1.082       .  S
C161        H173   1.082       .  S
C162        C163   1.372       .  A
C162        H174   1.082       .  S
C163        H175   1.082       .  S
C164        C165   1.374       .  A
C164        H176   1.082       .  S
C165        H177   1.082       .  S
C166       C1324   1.488       .  S
C167       C1284   1.499       .  S
C168       C1308   1.494       .  S
C169       C1288   1.493       .  S
N180        C185   1.355       .  A
N180        C184   1.352       .  A
N180        H212   1.043       .  S
N181        C188   1.353       .  A
N181        C189   1.350       .  A
N182        C187   1.351       .  A
N182        C186   1.355       .  A
N182        H213   1.043   1_556  S
N183        C190   1.349       .  A
N183        C191   1.353       .  A
C184        C192   1.385       .  A
C184        C200   1.413       .  A
C185        C201   1.421       .  A
C185        C193   1.389       .  A
C186        C194   1.389       .  A
C186        C203   1.421   1_556  A
C187        C202   1.411       .  A
C187        C195   1.385       .  A
C188        C200   1.413       .  A
C188        C196   1.386       .  A
C189        C203   1.415       .  A
C189        C197   1.387       .  A
C190        C198   1.387       .  A
C190        C201   1.413   1_556  A
C191        C199   1.387       .  A
C191        C202   1.413       .  A
C192        C193   1.376       .  A
C192        H204   1.081       .  S
C193        H205   1.081       .  S
C194        C195   1.377       .  A
C194        H206   1.081       .  S
C195        H207   1.081       .  S
C196        C197   1.375       .  A
C196        H208   1.081       .  S
C197        H209   1.082       .  S
C198        C199   1.374       .  A
C198        H210   1.082       .  S
C199        H211   1.081       .  S
C200       C1296   1.491       .  S
C201       C1276   1.495       .  S
C202       C1271   1.489       .  S
C203       C1279   1.499       .  S
N214        N215   1.322       .  A
N214        C218   1.347       .  A
N214       Cu222   2.075       .  S
N215        C216   1.342       .  A
N215       Cu221   2.058   1_554  S
C216        C217   1.381       .  A
C216        H219   1.082   1_554  S
C217        C218   1.383       .  A
C217       C1275   1.472       .  S
C218        H220   1.082       .  S
Cu221       N224   2.056       .  S
Cu222       N232   2.075       .  S
Cu223       N225   2.102       .  S
Cu223       N231   2.102       .  S
N224        N225   1.322   1_556  A
N224        C228   1.342       .  A
N225        C226   1.353       .  A
C226        C227   1.393   1_554  A
C226        H229   1.082       .  S
C227        C228   1.377       .  A
C227       C1283   1.483       .  S
C228        H230   1.082       .  S
N231        N232   1.323       .  A
N231        C235   1.353       .  A
N232        C233   1.343       .  A
C233        C234   1.380       .  A
C233        H236   1.082       .  S
C234        C235   1.391       .  A
C234       C1356   1.481       .  S
C235        H237   1.082       .  S
N238        N239   1.321       .  A
N238        C242   1.353       .  A
N238       Cu246   2.113       .  S
N239        C240   1.341       .  A
N239       Cu245   2.050       .  S
C240        C241   1.382       .  A
C240        H243   1.081       .  S
C241        C242   1.394       .  A
C241       C1267   1.488       .  S
C242        H244   1.082       .  S
Cu245       N248   2.049       .  S
Cu246       N256   2.116       .  S
Cu247       N249   2.091       .  S
Cu247       N255   2.094       .  S
N248        N249   1.320       .  A
N248        C252   1.339       .  A
N249        C250   1.351       .  A
C250        C251   1.391       .  A
C250        H253   1.082       .  S
C251        C252   1.382       .  A
C251       C1272   1.483       .  S
C252        H254   1.081       .  S
N255        N256   1.326       .  A
N255        C259   1.345       .  A
N256        C257   1.355       .  A
C257        C258   1.391       .  A
C257        H260   1.082       .  S
C258        C259   1.382       .  A
C258       C1263   1.486       .  S
C259        H261   1.082       .  S
N262        N263   1.321       .  A
N262        C266   1.352       .  A
N262       Cu270   2.097       .  S
N263        C264   1.340       .  A
N263       Cu269   2.048       .  S
C264        C265   1.376       .  A
C264        H267   1.082       .  S
C265        C266   1.393       .  A
C265       C1259   1.479       .  S
C266        H268   1.082       .  S
Cu269       N272   2.049       .  S
Cu270       N280   2.100       .  S
Cu271       N273   2.084       .  S
Cu271       N279   2.088       .  S
N272        N273   1.320       .  A
N272        C276   1.339       .  A
N273        C274   1.350       .  A
C274        C275   1.388       .  A
C274        H277   1.082       .  S
C275        C276   1.380       .  A
C275       C1256   1.476       .  S
C276        H278   1.082       .  S
N279        N280   1.325       .  A
N279        C283   1.349       .  A
N280        C281   1.348       .  A
C281        C282   1.385       .  A
C281        H284   1.082       .  S
C282        C283   1.386       .  A
C282       C1251   1.483       .  S
C283        H285   1.082       .  S
N286        C291   1.351       .  A
N286        C290   1.352       .  A
N286        H318   1.043       .  S
N287        C294   1.348       .  A
N287        C295   1.351       .  A
N288        C293   1.354       .  A
N288        C292   1.353       .  A
N288        H319   1.039       .  S
N289        C296   1.351       .  A
N289        C297   1.348       .  A
C290        C298   1.389       .  A
C290        C306   1.418       .  A
C291        C307   1.408   1_655  A
C291        C299   1.385       .  A
C292        C300   1.386       .  A
C292        C309   1.414       .  A
C293        C308   1.418       .  A
C293        C301   1.389       .  A
C294        C306   1.413       .  A
C294        C302   1.388       .  A
C295        C309   1.412   1_655  A
C295        C303   1.386       .  A
C296        C304   1.387       .  A
C296        C307   1.412       .  A
C297        C305   1.387       .  A
C297        C308   1.412       .  A
C298        C299   1.376       .  A
C298        H310   1.082       .  S
C299        H311   1.081       .  S
C300        C301   1.374       .  A
C300        H312   1.082       .  S
C301        H313   1.081       .  S
C302        C303   1.375       .  A
C302        H314   1.082       .  S
C303        H315   1.081       .  S
C304        C305   1.373       .  A
C304        H316   1.081       .  S
C305        H317   1.082       .  S
C306       C1332   1.490       .  S
C307       C1247   1.487       .  S
C308       C1255   1.484       .  S
C309       C1243   1.484       .  S
N320        C325   1.355       .  A
N320        C324   1.355       .  A
N320        H352   1.037   1_655  S
N321        C328   1.353       .  A
N321        C329   1.354       .  A
N322        C327   1.356       .  A
N322        C326   1.355       .  A
N322        H353   1.037       .  S
N323        C330   1.354       .  A
N323        C331   1.354   1_655  A
C324        C332   1.389       .  A
C324        C340   1.421   1_655  A
C325        C341   1.418       .  A
C325        C333   1.385       .  A
C326        C334   1.385       .  A
C326        C343   1.417       .  A
C327        C342   1.421       .  A
C327        C335   1.389       .  A
C328        C340   1.418       .  A
C328        C336   1.386       .  A
C329        C343   1.418       .  A
C329        C337   1.387       .  A
C330        C338   1.387       .  A
C330        C341   1.419       .  A
C331        C339   1.385   1_455  A
C331        C342   1.417       .  A
C332        C333   1.375       .  A
C332        H344   1.082       .  S
C333        H345   1.082       .  S
C334        C335   1.376       .  A
C334        H346   1.082       .  S
C335        H347   1.082       .  S
C336        C337   1.375       .  A
C336        H348   1.082       .  S
C337        H349   1.082       .  S
C338        C339   1.374       .  A
C338        H350   1.082       .  S
C339        H351   1.082       .  S
C340       C1240   1.493       .  S
C341       C1268   1.497       .  S
C342       C1236   1.495       .  S
C343       C1231   1.496       .  S
N354        N355   1.320   1_455  A
N354        C358   1.350       .  A
N354       Cu362   2.098       .  S
N355        C356   1.342       .  A
N355       Cu361   2.049       .  S
C356        C357   1.383   1_655  A
C356        H359   1.081       .  S
C357        C358   1.390       .  A
C357       C1239   1.485       .  S
C358        H360   1.082       .  S
Cu361       N364   2.048       .  S
Cu362       N372   2.099       .  S
Cu363       N365   2.083       .  S
Cu363       N371   2.084       .  S
N364        N365   1.321   1_655  A
N364        C368   1.340       .  A
N365        C366   1.348       .  A
C366        C367   1.386       .  A
C366        H369   1.082       .  S
C367        C368   1.380   1_455  A
C367       C1248   1.475       .  S
C368        H370   1.081       .  S
N371        N372   1.325       .  A
N371        C375   1.344       .  A
N372        C373   1.352       .  A
C373        C374   1.388       .  A
C373        H376   1.082       .  S
C374        C375   1.381       .  A
C374       C1340   1.480       .  S
C375        H377   1.082       .  S
N378        N379   1.322       .  A
N378        C382   1.348       .  A
N378       Cu386   2.079       .  S
N379        C380   1.342       .  A
N379       Cu385   2.058       .  S
C380        C381   1.379       .  A
C380        H383   1.082       .  S
C381        C382   1.383       .  A
C381       C1227   1.468       .  S
C382        H384   1.082       .  S
Cu385       N388   2.060       .  S
Cu386       N396   2.080       .  S
Cu387       N389   2.108       .  S
Cu387       N395   2.109       .  S
N388        N389   1.322       .  A
N388        C392   1.344       .  A
N389        C390   1.351       .  A
C390        C391   1.392       .  A
C390        H393   1.082       .  S
C391        C392   1.383       .  A
C391       C1232   1.487       .  S
C392        H394   1.082       .  S
N395        N396   1.324       .  A
N395        C399   1.353       .  A
N396        C397   1.345       .  A
C397        C398   1.381       .  A
C397        H400   1.082       .  S
C398        C399   1.390       .  A
C398       C1223   1.482       .  S
C399        H401   1.082       .  S
N402        N403   1.322       .  A
N402        C406   1.348       .  A
N402       Cu410   2.090       .  S
N403        C404   1.343       .  A
N403       Cu409   2.058       .  S
C404        C405   1.383       .  A
C404        H407   1.081       .  S
C405        C406   1.387       .  A
C405       C1215   1.480       .  S
C406        H408   1.082       .  S
Cu409       N412   2.054       .  S
Cu410       N420   2.090       .  S
Cu411       N413   2.091       .  S
Cu411       N419   2.091       .  S
N412        N413   1.322       .  A
N412        C416   1.343       .  A
N413        C414   1.349       .  A
C414        C415   1.386       .  A
C414        H417   1.082       .  S
C415        C416   1.379       .  A
C415       C1219   1.474       .  S
C416        H418   1.082       .  S
N419        N420   1.323       .  A
N419        C423   1.351       .  A
N420        C421   1.347       .  A
C421        C422   1.384       .  A
C421        H424   1.082       .  S
C422        C423   1.388       .  A
C422       C1211   1.483       .  S
C423        H425   1.082       .  S
N426        C431   1.355       .  A
N426        C430   1.354       .  A
N426        H458   1.037   1_565  S
N427        C434   1.352       .  A
N427        C435   1.352   1_565  A
N428        C433   1.351       .  A
N428        C432   1.354       .  A
N428        H459   1.038       .  S
N429        C436   1.353       .  A
N429        C437   1.354       .  A
C430        C438   1.386       .  A
C430        C446   1.417       .  A
C431        C447   1.421   1_565  A
C431        C439   1.389       .  A
C432        C440   1.388       .  A
C432        C449   1.416       .  A
C433        C448   1.414       .  A
C433        C441   1.386       .  A
C434        C446   1.415       .  A
C434        C442   1.387       .  A
C435        C449   1.414       .  A
C435        C443   1.385   1_545  A
C436        C444   1.387       .  A
C436        C447   1.418       .  A
C437        C445   1.386       .  A
C437        C448   1.416       .  A
C438        C439   1.376       .  A
C438        H450   1.082       .  S
C439        H451   1.082       .  S
C440        C441   1.374       .  A
C440        H452   1.082       .  S
C441        H453   1.082       .  S
C442        C443   1.374       .  A
C442        H454   1.082       .  S
C443        H455   1.082       .  S
C444        C445   1.373       .  A
C444        H456   1.082       .  S
C445        H457   1.082       .  S
C446       C1336   1.490       .  S
C447       C1207   1.493       .  S
C448       C1216   1.492       .  S
C449       C1204   1.488       .  S
N460        C465   1.356       .  A
N460        C464   1.355       .  A
N460        H492   1.039   1_565  S
N461        C468   1.353       .  A
N461        C469   1.353   1_565  A
N462        C467   1.353       .  A
N462        C466   1.355       .  A
N462        H493   1.039       .  S
N463        C470   1.353       .  A
N463        C471   1.354       .  A
C464        C472   1.385       .  A
C464        C480   1.417       .  A
C465        C481   1.421   1_565  A
C465        C473   1.389       .  A
C466        C474   1.388       .  A
C466        C483   1.417       .  A
C467        C482   1.415       .  A
C467        C475   1.386       .  A
C468        C480   1.414       .  A
C468        C476   1.387       .  A
C469        C483   1.414       .  A
C469        C477   1.386   1_545  A
C470        C478   1.387       .  A
C470        C481   1.417       .  A
C471        C479   1.386       .  A
C471        C482   1.415       .  A
C472        C473   1.378       .  A
C472        H484   1.082       .  S
C473        H485   1.082       .  S
C474        C475   1.376       .  A
C474        H486   1.082       .  S
C475        H487   1.082       .  S
C476        C477   1.372       .  A
C476        H488   1.082       .  S
C477        H489   1.082       .  S
C478        C479   1.372       .  A
C478        H490   1.082       .  S
C479        H491   1.082       .  S
C480       C1320   1.491       .  S
C481       C1196   1.496       .  S
C482       C1191   1.491       .  S
C483       C1199   1.491       .  S
N494        N495   1.321       .  A
N494        C498   1.351       .  A
N494       Cu502   2.102       .  S
N495        C496   1.342       .  A
N495       Cu501   2.055   1_545  S
C496        C497   1.383       .  A
C496        H499   1.081   1_545  S
C497        C498   1.391       .  A
C497       C1195   1.485       .  S
C498        H500   1.082       .  S
Cu501       N504   2.053   1_565  S
Cu502       N512   2.103       .  S
Cu503       N505   2.097       .  S
Cu503       N511   2.099       .  S
N504        N505   1.320       .  A
N504        C508   1.340   1_545  A
N505        C506   1.351       .  A
C506        C507   1.391       .  A
C506        H509   1.082       .  S
C507        C508   1.383   1_545  A
C507       C1208   1.485       .  S
C508        H510   1.081       .  S
N511        N512   1.325       .  A
N511        C515   1.351       .  A
N512        C513   1.349       .  A
C513        C514   1.386       .  A
C513        H516   1.082       .  S
C514        C515   1.388       .  A
C514       C1372   1.487       .  S
C515        H517   1.082       .  S
N518        N519   1.321       .  A
N518        C522   1.350       .  A
N518       Cu526   2.091       .  S
N519        C520   1.342       .  A
N519       Cu525   2.061       .  S
C520        C521   1.383       .  A
C520        H523   1.081       .  S
C521        C522   1.389       .  A
C521       C1192   1.483       .  S
C522        H524   1.082       .  S
Cu525       N528   2.058       .  S
Cu526       N536   2.092       .  S
Cu527       N529   2.102       .  S
Cu527       N535   2.103       .  S
N528        N529   1.321       .  A
N528        C532   1.343       .  A
N529        C530   1.351       .  A
C530        C531   1.390       .  A
C530        H533   1.082       .  S
C531        C532   1.379       .  A
C531       C1187   1.476       .  S
C532        H534   1.082       .  S
N535        N536   1.325       .  A
N535        C539   1.348       .  A
N536        C537   1.350       .  A
C537        C538   1.386       .  A
C537        H540   1.082       .  S
C538        C539   1.386       .  A
C538       C1183   1.484       .  S
C539        H541   1.082       .  S
N542        C547   1.351       .  A
N542        C546   1.357   1_556  A
N542        H574   1.038   1_556  S
N543        C550   1.349       .  A
N543        C551   1.350       .  A
N544        C549   1.354       .  A
N544        C548   1.349       .  A
N544        H575   1.043       .  S
N545        C552   1.353       .  A
N545        C553   1.352   1_556  A
C546        C554   1.387   1_554  A
C546        C562   1.419       .  A
C547        C563   1.418       .  A
C547        C555   1.388       .  A
C548        C556   1.385       .  A
C548        C565   1.407       .  A
C549        C564   1.417       .  A
C549        C557   1.388       .  A
C550        C562   1.412       .  A
C550        C558   1.387       .  A
C551        C565   1.410       .  A
C551        C559   1.386       .  A
C552        C560   1.388       .  A
C552        C563   1.419       .  A
C553        C561   1.385   1_554  A
C553        C564   1.414       .  A
C554        C555   1.376       .  A
C554        H566   1.081       .  S
C555        H567   1.082       .  S
C556        C557   1.378       .  A
C556        H568   1.082       .  S
C557        H569   1.081       .  S
C558        C559   1.374       .  A
C558        H570   1.082       .  S
C559        H571   1.081       .  S
C560        C561   1.376       .  A
C560        H572   1.081       .  S
C561        H573   1.082       .  S
C562       C1179   1.486       .  S
C563       C1228   1.494       .  S
C564       C1175   1.501       .  S
C565       C1171   1.483       .  S
N576        N577   1.322       .  A
N576        C580   1.354       .  A
N576       Cu584   2.115       .  S
N577        C578   1.339       .  A
N577       Cu583   2.047       .  S
C578        C579   1.380       .  A
C578        H581   1.081       .  S
C579        C580   1.394       .  A
C579       C1287   1.486       .  S
C580        H582   1.082       .  S
Cu583       N586   2.050       .  S
Cu584       N594   2.117   1_554  S
Cu585       N587   2.088   1_556  S
Cu585       N593   2.090       .  S
N586        N587   1.319       .  A
N586        C590   1.341       .  A
N587        C588   1.349       .  A
C588        C589   1.388       .  A
C588        H591   1.082   1_554  S
C589        C590   1.383       .  A
C589       C1180   1.481       .  S
C590        H592   1.081       .  S
N593        N594   1.326       .  A
N593        C597   1.345       .  A
N594        C595   1.356       .  A
C595        C596   1.392       .  A
C595        H598   1.082       .  S
C596        C597   1.381       .  A
C596       C1344   1.489       .  S
C597        H599   1.082       .  S
N600        C605   1.354   1_655  A
N600        C604   1.355       .  A
N600        H632   1.039   1_655  S
N601        C608   1.353       .  A
N601        C609   1.353       .  A
N602        C607   1.356       .  A
N602        C606   1.353       .  A
N602        H633   1.039       .  S
N603        C610   1.354       .  A
N603        C611   1.352       .  A
C604        C612   1.389       .  A
C604        C620   1.419       .  A
C605        C621   1.415       .  A
C605        C613   1.385   1_455  A
C606        C614   1.384       .  A
C606        C623   1.414       .  A
C607        C622   1.423       .  A
C607        C615   1.390       .  A
C608        C620   1.416       .  A
C608        C616   1.385       .  A
C609        C623   1.416   1_655  A
C609        C617   1.387       .  A
C610        C618   1.388       .  A
C610        C621   1.418       .  A
C611        C619   1.386       .  A
C611        C622   1.415       .  A
C612        C613   1.375       .  A
C612        H624   1.082       .  S
C613        H625   1.082       .  S
C614        C615   1.377       .  A
C614        H626   1.082       .  S
C615        H627   1.082       .  S
C616        C617   1.373       .  A
C616        H628   1.082       .  S
C617        H629   1.082       .  S
C618        C619   1.373       .  A
C618        H630   1.082       .  S
C619        H631   1.082       .  S
C620       C1300   1.493       .  S
C621       C1167   1.495       .  S
C622       C1160   1.496       .  S
C623       C1164   1.491       .  S
N634        N635   1.319       .  A
N634        C638   1.349       .  A
N634       Cu642   2.083       .  S
N635        C636   1.340       .  A
N635       Cu641   2.051       .  S
C636        C637   1.384       .  A
C636        H639   1.081       .  S
C637        C638   1.388       .  A
C637       C1244   1.481       .  S
C638        H640   1.082   1_455  S
Cu641       N644   2.049       .  S
Cu642       N652   2.086   1_455  S
Cu643       N645   2.108       .  S
Cu643       N651   2.110   1_455  S
N644        N645   1.321       .  A
N644        C648   1.340       .  A
N645        C646   1.353       .  A
C646        C647   1.394       .  A
C646        H649   1.082   1_455  S
C647        C648   1.382       .  A
C647       C1168   1.488       .  S
C648        H650   1.081       .  S
N651        N652   1.326       .  A
N651        C655   1.352       .  A
N652        C653   1.345       .  A
C653        C654   1.380       .  A
C653        H656   1.082       .  S
C654        C655   1.388       .  A
C654       C1364   1.481       .  S
C655        H657   1.082       .  S
N658        N659   1.321       .  A
N658        C662   1.348       .  A
N658       Cu666   2.078       .  S
N659        C660   1.340       .  A
N659       Cu665   2.052       .  S
C660        C661   1.380       .  A
C660        H663   1.082       .  S
C661        C662   1.385       .  A
C661       C1172   1.473       .  S
C662        H664   1.082       .  S
Cu665       N668   2.049       .  S
Cu666       N676   2.080       .  S
Cu667       N669   2.101       .  S
Cu667       N675   2.104       .  S
N668        N669   1.321       .  A
N668        C672   1.340       .  A
N669        C670   1.352       .  A
C670        C671   1.394       .  A
C670        H673   1.082       .  S
C671        C672   1.376       .  A
C671       C1159   1.480       .  S
C672        H674   1.082       .  S
N675        N676   1.325       .  A
N675        C679   1.349       .  A
N676        C677   1.346       .  A
C677        C678   1.385       .  A
C677        H680   1.082       .  S
C678        C679   1.387       .  A
C678       C1155   1.485       .  S
C679        H681   1.082       .  S
N682        C687   1.357       .  A
N682        C686   1.352       .  A
N682        H714   1.038       .  S
N683        C690   1.354   1_556  A
N683        C691   1.353       .  A
N684        C689   1.354       .  A
N684        C688   1.357       .  A
N684        H715   1.042   1_556  S
N685        C692   1.351       .  A
N685        C693   1.352       .  A
C686        C694   1.386       .  A
C686        C702   1.417       .  A
C687        C703   1.422       .  A
C687        C695   1.389       .  A
C688        C696   1.388       .  A
C688        C705   1.423       .  A
C689        C704   1.414   1_556  A
C689        C697   1.385       .  A
C690        C702   1.418       .  A
C690        C698   1.386   1_554  A
C691        C705   1.419       .  A
C691        C699   1.388       .  A
C692        C700   1.388       .  A
C692        C703   1.418       .  A
C693        C701   1.387       .  A
C693        C704   1.414       .  A
C694        C695   1.376       .  A
C694        H706   1.082       .  S
C695        H707   1.081       .  S
C696        C697   1.376       .  A
C696        H708   1.081       .  S
C697        H709   1.081       .  S
C698        C699   1.376       .  A
C698        H710   1.082       .  S
C699        H711   1.082       .  S
C700        C701   1.376       .  A
C700        H712   1.082       .  S
C701        H713   1.081       .  S
C702       C1151   1.490       .  S
C703       C1143   1.493       .  S
C704       C1147   1.491       .  S
C705       C1188   1.507       .  S
N716        N717   1.321       .  A
N716        C720   1.348   1_554  A
N716       Cu724   2.085   1_554  S
N717        C718   1.342       .  A
N717       Cu723   2.055       .  S
C718        C719   1.380       .  A
C718        H721   1.082       .  S
C719        C720   1.386   1_554  A
C719       C1280   1.474       .  S
C720        H722   1.082       .  S
Cu723       N726   2.057       .  S
Cu724       N734   2.087       .  S
Cu725       N727   2.107       .  S
Cu725       N733   2.107   1_554  S
N726        N727   1.323       .  A
N726        C730   1.342       .  A
N727        C728   1.352       .  A
C728        C729   1.391       .  A
C728        H731   1.082       .  S
C729        C730   1.382       .  A
C729       C1152   1.486       .  S
C730        H732   1.081       .  S
N733        N734   1.323       .  A
N733        C737   1.356       .  A
N734        C735   1.344       .  A
C735        C736   1.383       .  A
C735        H738   1.082       .  S
C736        C737   1.393       .  A
C736       C1376   1.487       .  S
C737        H739   1.082       .  S
N740        C745   1.351       .  A
N740        C744   1.355       .  A
N740        H772   1.042       .  S
N741        C748   1.351       .  A
N741        C749   1.353       .  A
N742        C747   1.357       .  A
N742        C746   1.353       .  A
N742        H773   1.038       .  S
N743        C750   1.352       .  A
N743        C751   1.350       .  A
C744        C752   1.389       .  A
C744        C760   1.421   1_565  A
C745        C761   1.411       .  A
C745        C753   1.385       .  A
C746        C754   1.387       .  A
C746        C763   1.420       .  A
C747        C762   1.423       .  A
C747        C755   1.389       .  A
C748        C760   1.417       .  A
C748        C756   1.386       .  A
C749        C763   1.417       .  A
C749        C757   1.387       .  A
C750        C758   1.386       .  A
C750        C761   1.413       .  A
C751        C759   1.388       .  A
C751        C762   1.417   1_565  A
C752        C753   1.377       .  A
C752        H764   1.081       .  S
C753        H765   1.081       .  S
C754        C755   1.376       .  A
C754        H766   1.082       .  S
C755        H767   1.081       .  S
C756        C757   1.375       .  A
C756        H768   1.082       .  S
C757        H769   1.081       .  S
C758        C759   1.376       .  A
C758        H770   1.081       .  S
C759        H771   1.082       .  S
C760       C1140   1.501       .  S
C761       C1312   1.491       .  S
C762       C1135   1.492       .  S
C763       C1131   1.491       .  S
N774        N775   1.322       .  A
N774        C778   1.348       .  A
N774       Cu782   2.088       .  S
N775        C776   1.343       .  A
N775       Cu781   2.059       .  S
C776        C777   1.383       .  A
C776        H779   1.081       .  S
C777        C778   1.387       .  A
C777       C1203   1.481       .  S
C778        H780   1.082       .  S
Cu781       N784   2.058       .  S
Cu782       N792   2.087   1_545  S
Cu783       N785   2.092   1_565  S
Cu783       N791   2.093       .  S
N784        N785   1.322       .  A
N784        C788   1.343       .  A
N785        C786   1.349   1_545  A
C786        C787   1.386   1_565  A
C786        H789   1.082       .  S
C787        C788   1.380       .  A
C787       C1139   1.476       .  S
C788        H790   1.082       .  S
N791        N792   1.323       .  A
N791        C795   1.346       .  A
N792        C793   1.351       .  A
C793        C794   1.388       .  A
C793        H796   1.082   1_565  S
C794        C795   1.385       .  A
C794       C1359   1.483       .  S
C795        H797   1.082       .  S
N798        N799   1.320       .  A
N798        C802   1.353       .  A
N798       Cu806   2.105       .  S
N799        C800   1.339       .  A
N799       Cu805   2.044       .  S
C800        C801   1.381       .  A
C800        H803   1.081       .  S
C801        C802   1.394       .  A
C801       C1144   1.486       .  S
C802        H804   1.082       .  S
Cu805       N808   2.045       .  S
Cu806       N816   2.108       .  S
Cu807       N809   2.100       .  S
Cu807       N815   2.103       .  S
N808        N809   1.319       .  A
N808        C812   1.339       .  A
N809        C810   1.353       .  A
C810        C811   1.393       .  A
C810        H813   1.082       .  S
C811        C812   1.382       .  A
C811       C1132   1.486       .  S
C812        H814   1.081       .  S
N815        N816   1.327       .  A
N815        C819   1.348       .  A
N816        C817   1.352       .  A
C817        C818   1.387       .  A
C817        H820   1.082       .  S
C818        C819   1.384       .  A
C818       C1127   1.482       .  S
C819        H821   1.082       .  S
N822        C827   1.355       .  A
N822        C826   1.353       .  A
N822        H854   1.041       .  S
N823        C830   1.352       .  A
N823        C831   1.351       .  A
N824        C829   1.354       .  A
N824        C828   1.355       .  A
N824        H855   1.038       .  S
N825        C832   1.351       .  A
N825        C833   1.355       .  A
C826        C834   1.383       .  A
C826        C842   1.411   1_565  A
C827        C843   1.422       .  A
C827        C835   1.391       .  A
C828        C836   1.390       .  A
C828        C845   1.420       .  A
C829        C844   1.416       .  A
C829        C837   1.385       .  A
C830        C842   1.412       .  A
C830        C838   1.387       .  A
C831        C845   1.414       .  A
C831        C839   1.386       .  A
C832        C840   1.384       .  A
C832        C843   1.412       .  A
C833        C841   1.388       .  A
C833        C844   1.421   1_565  A
C834        C835   1.378       .  A
C834        H846   1.082       .  S
C835        H847   1.081       .  S
C836        C837   1.378       .  A
C836        H848   1.082       .  S
C837        H849   1.082       .  S
C838        C839   1.373       .  A
C838        H850   1.082       .  S
C839        H851   1.082       .  S
C840        C841   1.377       .  A
C840        H852   1.082       .  S
C841        H853   1.081       .  S
C842       C1123   1.488       .  S
C843       C1260   1.497       .  S
C844       C1119   1.502       .  S
C845       C1116   1.491       .  S
N856        N857   1.319       .  A
N856        C860   1.350       .  A
N856       Cu864   2.092       .  S
N857        C858   1.341       .  A
N857       Cu863   2.049       .  S
C858        C859   1.383       .  A
C858        H861   1.081       .  S
C859        C860   1.390       .  A
C859       C1200   1.482       .  S
C860        H862   1.082   1_545  S
Cu863       N866   2.048       .  S
Cu864       N874   2.095   1_545  S
Cu865       N867   2.105       .  S
Cu865       N873   2.107   1_545  S
N866        N867   1.321       .  A
N866        C870   1.339       .  A
N867        C868   1.353       .  A
C868        C869   1.393       .  A
C868        H871   1.082   1_545  S
C869        C870   1.381       .  A
C869       C1124   1.486       .  S
C870        H872   1.081       .  S
N873        N874   1.326       .  A
N873        C877   1.353       .  A
N874        C875   1.345       .  A
C875        C876   1.382       .  A
C875        H878   1.082       .  S
C876        C877   1.389       .  A
C876       C1347   1.483       .  S
C877        H879   1.082       .  S
N880        C885   1.354       .  A
N880        C884   1.353       .  A
N880        H912   1.038   1_655  S
N881        C888   1.353       .  A
N881        C889   1.348       .  A
N882        C887   1.352       .  A
N882        C886   1.354       .  A
N882        H913   1.037       .  S
N883        C890   1.350       .  A
N883        C891   1.353       .  A
C884        C892   1.386       .  A
C884        C900   1.416       .  A
C885        C901   1.418   1_655  A
C885        C893   1.389       .  A
C886        C894   1.389       .  A
C886        C903   1.419       .  A
C887        C902   1.417       .  A
C887        C895   1.386       .  A
C888        C900   1.417       .  A
C888        C896   1.387       .  A
C889        C903   1.410   1_655  A
C889        C897   1.385       .  A
C890        C898   1.389       .  A
C890        C901   1.421       .  A
C891        C899   1.385       .  A
C891        C902   1.416       .  A
C892        C893   1.377       .  A
C892        H904   1.082       .  S
C893        H905   1.082       .  S
C894        C895   1.378       .  A
C894        H906   1.081       .  S
C895        H907   1.081       .  S
C896        C897   1.375       .  A
C896        H908   1.081       .  S
C897        H909   1.081       .  S
C898        C899   1.373       .  A
C898        H910   1.081       .  S
C899        H911   1.082       .  S
C900       C1220   1.499       .  S
C901       C1111   1.488       .  S
C902       C1104   1.494       .  S
C903       C1107   1.486       .  S
N914        N915   1.320       .  A
N914        C918   1.355       .  A
N914       Cu922   2.115       .  S
N915        C916   1.339       .  A
N915       Cu921   2.042       .  S
C916        C917   1.381       .  A
C916        H919   1.081       .  S
C917        C918   1.396       .  A
C917       C1235   1.490       .  S
C918        H920   1.082   1_455  S
Cu921       N924   2.045       .  S
Cu922       N932   2.118   1_455  S
Cu923       N925   2.083       .  S
Cu923       N931   2.086   1_455  S
N924        N925   1.320       .  A
N924        C928   1.338       .  A
N925        C926   1.350       .  A
C926        C927   1.390       .  A
C926        H929   1.082   1_455  S
C927        C928   1.375       .  A
C927       C1112   1.470       .  S
C928        H930   1.082       .  S
N931        N932   1.327       .  A
N931        C935   1.345       .  A
N932        C933   1.354       .  A
C933        C934   1.390       .  A
C933        H936   1.082       .  S
C934        C935   1.380       .  A
C934       C1380   1.484       .  S
C935        H937   1.082       .  S
N938        N939   1.321       .  A
N938        C942   1.352       .  A
N938       Cu946   2.104       .  S
N939        C940   1.341       .  A
N939       Cu945   2.047       .  S
C940        C941   1.381       .  A
C940        H943   1.081       .  S
C941        C942   1.392       .  A
C941       C1103   1.486       .  S
C942        H944   1.082       .  S
Cu945       N948   2.045       .  S
Cu946       N956   2.105       .  S
Cu947       N949   2.091       .  S
Cu947       N955   2.093       .  S
N948        N949   1.320       .  A
N948        C952   1.340       .  A
N949        C950   1.350       .  A
C950        C951   1.390       .  A
C950        H953   1.082       .  S
C951        C952   1.382       .  A
C951       C1115   1.482       .  S
C952        H954   1.081       .  S
N955        N956   1.325       .  A
N955        C959   1.346       .  A
N956        C957   1.353       .  A
C957        C958   1.389       .  A
C957        H960   1.082       .  S
C958        C959   1.382       .  A
C958       C1099   1.483       .  S
C959        H961   1.082       .  S
N962        N963   1.321       .  A
N962        C966   1.351       .  A
N962       Cu970   2.098       .  S
N963        C964   1.341       .  A
N963       Cu969   2.052   1_455  S
C964        C965   1.382       .  A
C964        H967   1.081   1_455  S
C965        C966   1.391       .  A
C965       C1163   1.485       .  S
C966        H968   1.082       .  S
Cu969       N972   2.051       .  S
Cu970       N980   2.099       .  S
Cu971       N973   2.081       .  S
Cu971       N979   2.083       .  S
N972        N973   1.320   1_655  A
N972        C976   1.340       .  A
N973        C974   1.348       .  A
C974        C975   1.386       .  A
C974        H977   1.082       .  S
C975        C976   1.382   1_455  A
C975       C1108   1.477       .  S
C976        H978   1.082       .  S
N979        N980   1.325       .  A
N979        C983   1.344       .  A
N980        C981   1.351       .  A
C981        C982   1.388       .  A
C981        H984   1.082       .  S
C982        C983   1.380       .  A
C982       C1396   1.478       .  S
C983        H985   1.082       .  S
N986        N987   1.322       .  A
N986        C990   1.356   1_565  A
N986       Cu994   2.115   1_565  S
N987        C988   1.340       .  A
N987       Cu993   2.051       .  S
C988        C989   1.375       .  A
C988        H991   1.082       .  S
C989        C990   1.397   1_565  A
C989       C1120   1.484       .  S
C990        H992   1.082       .  S
Cu993       N996   2.054       .  S
Cu994      N1004   2.117       .  S
Cu995       N997   2.091       .  S
Cu995      N1003   2.093       .  S
N996        N997   1.320   1_565  A
N996       C1000   1.341       .  A
N997        C998   1.351       .  A
C998        C999   1.390       .  A
C998       H1001   1.082       .  S
C999       C1000   1.382   1_545  A
C999       C1136   1.483       .  S
C1000      H1002   1.081       .  S
N1003      N1004   1.326       .  A
N1003      C1007   1.345       .  A
N1004      C1005   1.355       .  A
C1005      C1006   1.391       .  A
C1005      H1008   1.082       .  S
C1006      C1007   1.381       .  A
C1006      C1392   1.486       .  S
C1007      H1009   1.082       .  S
N1010      N1011   1.320       .  A
N1010      C1014   1.352       .  A
N1010     Cu1018   2.092       .  S
N1011      C1012   1.340       .  A
N1011     Cu1017   2.053       .  S
C1012      C1013   1.383       .  A
C1012      H1015   1.081   1_554  S
C1013      C1014   1.391       .  A
C1013      C1148   1.486       .  S
C1014      H1016   1.082       .  S
Cu1017     N1020   2.053       .  S
Cu1018     N1028   2.094       .  S
Cu1019     N1021   2.095       .  S
Cu1019     N1027   2.096       .  S
N1020      N1021   1.321       .  A
N1020      C1024   1.341       .  A
N1021      C1022   1.350       .  A
C1022      C1023   1.389       .  A
C1022      H1025   1.082       .  S
C1023      C1024   1.380       .  A
C1023      C1176   1.479       .  S
C1024      H1026   1.082       .  S
N1027      N1028   1.325       .  A
N1027      C1031   1.346       .  A
N1028      C1029   1.350       .  A
C1029      C1030   1.387       .  A
C1029      H1032   1.082       .  S
C1030      C1031   1.383       .  A
C1030      C1387   1.482       .  S
C1031      H1033   1.082       .  S
C1034      C1035   1.544       .  S
C1034      C1040   1.556       .  S
C1034      C1038   1.544       .  S
C1034      C1095   1.551       .  S
C1035      H1042   1.086       .  S
C1035      C1036   1.367       .  D
C1036      C1037   1.536       .  S
C1036      C1184   1.490       .  S
C1037      C1041   1.539       .  S
C1037      C1039   1.541       .  S
C1037      H1043   1.108       .  S
C1038      H1044   1.086       .  S
C1038      C1039   1.372       .  D
C1039      C1100   1.493       .  S
C1040      H1045   1.082       .  S
C1040      C1041   1.372       .  D
C1041      C1224   1.496       .  S
C1046      C1047   1.548       .  S
C1046      C1052   1.547       .  S
C1046      C1050   1.544       .  S
C1046      C1091   1.547       .  S
C1047      H1054   1.086       .  S
C1047      C1048   1.376       .  D
C1048      C1049   1.544       .  S
C1048      C1292   1.497       .  S
C1049      C1053   1.535       .  S
C1049      C1051   1.541       .  S
C1049      H1055   1.110       .  S
C1050      H1056   1.086       .  S
C1050      C1051   1.372       .  D
C1051      C1128   1.494       .  S
C1052      H1057   1.086       .  S
C1052      C1053   1.367       .  D
C1053      C1212   1.490       .  S
C1058      C1059   1.546       .  S
C1058      C1064   1.549       .  S
C1058      C1062   1.542       .  S
C1058      C1087   1.540       .  S
C1059      H1066   1.086       .  S
C1059      C1060   1.370       .  D
C1060      C1061   1.537       .  S
C1060      C1316   1.493       .  S
C1061      C1065   1.540       .  S
C1061      C1063   1.538       .  S
C1061      H1067   1.106       .  S
C1062      H1068   1.086       .  S
C1062      C1063   1.366       .  D
C1063      C1328   1.485       .  S
C1064      H1069   1.086       .  S
C1064      C1065   1.375       .  D
C1065      C1264   1.500       .  S
C1070      C1071   1.547       .  S
C1070      C1076   1.544       .  S
C1070      C1074   1.546       .  S
C1070      C1083   1.538       .  S
C1071      H1078   1.086       .  S
C1071      C1072   1.368       .  D
C1072      C1073   1.531       .  S
C1072      C1156   1.485       .  S
C1073      C1077   1.542       .  S
C1073      C1075   1.536       .  S
C1073      H1079   1.110       .  S
C1074      H1080   1.086       .  S
C1074      C1075   1.369       .  D
C1075      C1304   1.490       .  S
C1076      H1081   1.086       .  S
C1076      C1077   1.374       .  D
C1077      C1252   1.491       .  S
C1082      C1084   1.551       .  S
C1082      C1088   1.552       .  S
C1082      C1092   1.558       .  S
C1082      C1096   1.551       .  S
C1083      H1085   1.087       .  S
C1083      C1084   1.357       .  D
C1084      H1086   1.087       .  S
C1087      H1089   1.086       .  S
C1087      C1088   1.354       .  D
C1088      H1090   1.088       .  S
C1091      H1093   1.086       .  S
C1091      C1092   1.358       .  D
C1092      H1094   1.087       .  S
C1095      H1097   1.085       .  S
C1095      C1096   1.359       .  D
C1096      H1098   1.082       .  S
C1099      H1101   1.086       .  S
C1099      C1100   1.347       .  D
C1100      H1102   1.086       .  S
C1103      H1105   1.086       .  S
C1103      C1104   1.351       .  D
C1104      H1106   1.083       .  S
C1107      H1109   1.084       .  S
C1107      C1108   1.347       .  D
C1108      H1110   1.086       .  S
C1111      H1113   1.086       .  S
C1111      C1112   1.339       .  D
C1112      H1114   1.088       .  S
C1115      H1117   1.086       .  S
C1115      C1116   1.350       .  D
C1116      H1118   1.084       .  S
C1119      H1121   1.086       .  S
C1119      C1120   1.344   1_545  D
C1120      H1122   1.086       .  S
C1123      H1125   1.085       .  S
C1123      C1124   1.349       .  D
C1124      H1126   1.086   1_545  S
C1127      H1129   1.083       .  S
C1127      C1128   1.347       .  D
C1128      H1130   1.086       .  S
C1131      H1133   1.083       .  S
C1131      C1132   1.350       .  D
C1132      H1134   1.086       .  S
C1135      H1137   1.084   1_545  S
C1135      C1136   1.349       .  D
C1136      H1138   1.086       .  S
C1139      H1141   1.084   1_545  S
C1139      C1140   1.347       .  D
C1140      H1142   1.087       .  S
C1143      H1145   1.084       .  S
C1143      C1144   1.351       .  D
C1144      H1146   1.086       .  S
C1147      H1149   1.082       .  S
C1147      C1148   1.350       .  D
C1148      H1150   1.086       .  S
C1151      H1153   1.084       .  S
C1151      C1152   1.349       .  D
C1152      H1154   1.086       .  S
C1155      H1157   1.086       .  S
C1155      C1156   1.346       .  D
C1156      H1158   1.086       .  S
C1159      H1161   1.087       .  S
C1159      C1160   1.342       .  D
C1160      H1162   1.086       .  S
C1163      H1165   1.086       .  S
C1163      C1164   1.348       .  D
C1164      H1166   1.085   1_455  S
C1167      H1169   1.084       .  S
C1167      C1168   1.352       .  D
C1168      H1170   1.086       .  S
C1171      H1173   1.085       .  S
C1171      C1172   1.346       .  D
C1172      H1174   1.086       .  S
C1175      H1177   1.087       .  S
C1175      C1176   1.350       .  D
C1176      H1178   1.083       .  S
C1179      H1181   1.085       .  S
C1179      C1180   1.346       .  D
C1180      H1182   1.086       .  S
C1183      H1185   1.085       .  S
C1183      C1184   1.347       .  D
C1184      H1186   1.086       .  S
C1187      H1189   1.083       .  S
C1187      C1188   1.348       .  D
C1188      H1190   1.086       .  S
C1191      H1193   1.085       .  S
C1191      C1192   1.347       .  D
C1192      H1194   1.086       .  S
C1195      H1197   1.086       .  S
C1195      C1196   1.351       .  D
C1196      H1198   1.085   1_545  S
C1199      H1201   1.085       .  S
C1199      C1200   1.348       .  D
C1200      H1202   1.086       .  S
C1203      H1205   1.087       .  S
C1203      C1204   1.346       .  D
C1204      H1206   1.085       .  S
C1207      H1209   1.085   1_545  S
C1207      C1208   1.349       .  D
C1208      H1210   1.086       .  S
C1211      H1213   1.083       .  S
C1211      C1212   1.346       .  D
C1212      H1214   1.086       .  S
C1215      H1217   1.087       .  S
C1215      C1216   1.348       .  D
C1216      H1218   1.084       .  S
C1219      H1221   1.083       .  S
C1219      C1220   1.345       .  D
C1220      H1222   1.088       .  S
C1223      H1225   1.083       .  S
C1223      C1224   1.347       .  D
C1224      H1226   1.086       .  S
C1227      H1229   1.084       .  S
C1227      C1228   1.342       .  D
C1228      H1230   1.088       .  S
C1231      H1233   1.085       .  S
C1231      C1232   1.350       .  D
C1232      H1234   1.086       .  S
C1235      H1237   1.086       .  S
C1235      C1236   1.352       .  D
C1236      H1238   1.084       .  S
C1239      H1241   1.086       .  S
C1239      C1240   1.349       .  D
C1240      H1242   1.085   1_455  S
C1243      H1245   1.084       .  S
C1243      C1244   1.345       .  D
C1244      H1246   1.086       .  S
C1247      H1249   1.084   1_455  S
C1247      C1248   1.347       .  D
C1248      H1250   1.086       .  S
C1251      H1253   1.086       .  S
C1251      C1252   1.347       .  D
C1252      H1254   1.086       .  S
C1255      H1257   1.085       .  S
C1255      C1256   1.347       .  D
C1256      H1258   1.086       .  S
C1259      H1261   1.086       .  S
C1259      C1260   1.343       .  D
C1260      H1262   1.086       .  S
C1263      H1265   1.084       .  S
C1263      C1264   1.350       .  D
C1264      H1266   1.086       .  S
C1267      H1269   1.086       .  S
C1267      C1268   1.352       .  D
C1268      H1270   1.085       .  S
C1271      H1273   1.082       .  S
C1271      C1272   1.349       .  D
C1272      H1274   1.086       .  S
C1275      H1277   1.084       .  S
C1275      C1276   1.343       .  D
C1276      H1278   1.088   1_554  S
C1279      H1281   1.087       .  S
C1279      C1280   1.345       .  D
C1280      H1282   1.083   1_554  S
C1283      H1285   1.087       .  S
C1283      C1284   1.343   1_556  D
C1284      H1286   1.086       .  S
C1287      H1289   1.086       .  S
C1287      C1288   1.352       .  D
C1288      H1290   1.085       .  S
C1291      H1293   1.086       .  S
C1291      C1292   1.350       .  D
C1292      H1294   1.086       .  S
C1295      H1297   1.086       .  S
C1295      C1296   1.350       .  D
C1296      H1298   1.082       .  S
C1299      H1301   1.086       .  S
C1299      C1300   1.349       .  D
C1300      H1302   1.085       .  S
C1303      H1305   1.087       .  S
C1303      C1304   1.346       .  D
C1304      H1306   1.086       .  S
C1307      H1309   1.086       .  S
C1307      C1308   1.350       .  D
C1308      H1310   1.084       .  S
C1311      H1313   1.086       .  S
C1311      C1312   1.350       .  D
C1312      H1314   1.083       .  S
C1315      H1317   1.084       .  S
C1315      C1316   1.347       .  D
C1316      H1318   1.086       .  S
C1319      H1321   1.086       .  S
C1319      C1320   1.348       .  D
C1320      H1322   1.085       .  S
C1323      H1325   1.086       .  S
C1323      C1324   1.345       .  D
C1324      H1326   1.085       .  S
C1327      H1329   1.086       .  S
C1327      C1328   1.343       .  D
C1328      H1330   1.086       .  S
C1331      H1333   1.084       .  S
C1331      C1332   1.342       .  D
C1332      H1334   1.087       .  S
C1335      H1337   1.087       .  S
C1335      C1336   1.347       .  D
C1336      H1338   1.085       .  S
C1339      H1341   1.086       .  S
C1339      C1340   1.346       .  D
C1340      H1342   1.086       .  S
C1343      H1345   1.086   1_556  S
C1343      C1344   1.350       .  D
C1344      H1346   1.086       .  S
C1347      H1349   1.087       .  S
C1347      C1348   1.348       .  D
C1348      H1350   1.086   1_565  S
C1351      H1353   1.085       .  S
C1351      C1352   1.364   1_546  D
C1352      H1354   1.085       .  S
C1355      H1357   1.086       .  S
C1355      C1356   1.346       .  D
C1356      H1358   1.086       .  S
C1359      H1361   1.086       .  S
C1359      C1360   1.349       .  D
C1360      H1362   1.086   1_565  S
C1363      H1365   1.086   1_655  S
C1363      C1364   1.345       .  D
C1364      H1366   1.087       .  S
C1367      H1369   1.088       .  S
C1367      C1368   1.354   1_645  D
C1368      H1370   1.086       .  S
C1371      H1373   1.086       .  S
C1371      C1372   1.348       .  D
C1372      H1374   1.086       .  S
C1375      H1377   1.086   1_556  S
C1375      C1376   1.350       .  D
C1376      H1378   1.086       .  S
C1379      H1381   1.086   1_655  S
C1379      C1380   1.346       .  D
C1380      H1382   1.086       .  S
C1383      H1385   1.083   1_455  S
C1383      C1384   1.361   1_454  D
C1384      H1386   1.083   1_655  S
C1387      H1389   1.086       .  S
C1387      C1388   1.347       .  D
C1388      H1390   1.086       .  S
C1391      H1393   1.086       .  S
C1391      C1392   1.348       .  D
C1392      H1394   1.086       .  S
C1395      H1397   1.086       .  S
C1395      C1396   1.345       .  D
C1396      H1398   1.086       .  S
C1399      H1401   1.087       .  S
C1399      C1400   1.353       .  D
C1400      H1402   1.087       .  S
