geometry optimzed in LAMMPS
_audit_creation_date              2020-12-01 
_audit_creation_method            'lammps2cif' 
_symmetry_space_group_name_H-M    'P1' 
_symmetry_Int_Tables_number       1 
_symmetry_cell_setting            triclinic 
loop_ 
_symmetry_equiv_pos_as_xyz 
  x,y,z 
_cell_length_a                    31.74678352 
_cell_length_b                    30.200200096221877 
_cell_length_c                    29.818018930284044 
_cell_angle_alpha                 90.32770953435988 
_cell_angle_beta                  89.45092313425239 
_cell_angle_gamma                 90.3090380683274 
loop_ 
_atom_site_label 
_atom_site_type_symbol 
_atom_site_fract_x 
_atom_site_fract_y 
_atom_site_fract_z 
_atom_site_charge 
C1          C  0.19045537  0.76374082  0.77157241     0.03900
C2          C  0.20478654  0.73161311  0.74104901    -0.12200
C3          C  0.23879593  0.70402735  0.75117964     0.01400
C4          C  0.26107266  0.71233198  0.79114762    -0.10700
C5          C  0.24773393  0.74471390  0.82269069     0.03900
C6          C  0.20988785  0.76753502  0.81356269    -0.10200
H7          H  0.19055109  0.72956351  0.70824403     0.09500
H8          H  0.29002033  0.69481662  0.79637984     0.07100
H9          H  0.19681054  0.79079504  0.83749635     0.06900
C10         C  0.73162750  0.87631279  0.15403547     0.03900
C11         C  0.69364289  0.85251554  0.15191178    -0.12200
C12         C  0.68789512  0.81844395  0.12010010     0.01400
C13         C  0.71813747  0.81338773  0.08568816    -0.10700
C14         C  0.75675601  0.83643808  0.08710892     0.03900
C15         C  0.76329697  0.86711608  0.12207249    -0.10200
H16         H  0.66984478  0.85833173  0.17710293     0.09500
H17         H  0.71303275  0.78853588  0.05996417     0.07100
H18         H  0.79393352  0.88254268  0.12572977     0.06900
C19         C  0.83240822  0.23733520  0.61252467     0.03900
C20         C  0.86286337  0.26851544  0.62562555    -0.12200
C21         C  0.88978881  0.26065486  0.66190114     0.01400
C22         C  0.88248443  0.22226544  0.68778538    -0.10700
C23         C  0.85102274  0.19095144  0.67641855     0.03900
C24         C  0.82726580  0.19834356  0.63735195    -0.10200
H25         H  0.86472114  0.29966147  0.60794316     0.09500
H26         H  0.90042211  0.21733743  0.71782303     0.07100
H27         H  0.80334701  0.17479836  0.62707250     0.06900
N28         N  0.94297599  0.78332362  0.98581400    -0.02700
C29         C  0.91498292  0.77435453  0.01959874    -0.00100
C30         C  0.93234058  0.74561763  0.05005811    -0.23000
C31         C  0.97165847  0.73529403  0.03420221    -0.23200
C32         C  0.97791535  0.75890637  0.99500342    -0.00200
H33         H  0.91729477  0.73229136  0.07981861     0.13600
H34         H  0.99277822  0.71151322  0.04882564     0.13600
N35         N  0.05550982  0.90868038  0.67126752    -0.02700
C36         C  0.08771053  0.87889555  0.66992942    -0.00100
C37         C  0.10924282  0.88113413  0.62961308    -0.23000
C38         C  0.09023502  0.91318295  0.60499745    -0.23200
C39         C  0.05762033  0.92985925  0.63098247    -0.00200
H40         H  0.13693614  0.86249867  0.61992233     0.13600
H41         H  0.09962867  0.92391328  0.57177857     0.13600
N42         N  0.78572281  0.05307666  0.84679276    -0.02700
C43         C  0.79197324  0.09457615  0.82977972    -0.00100
C44         C  0.77624503  0.12631815  0.85878089    -0.23000
C45         C  0.75840868  0.10432998  0.89416169    -0.23200
C46         C  0.76392871  0.05965974  0.88610385    -0.00200
H47         H  0.77580976  0.16174503  0.85345016     0.13600
H48         H  0.74129389  0.11922381  0.92191450     0.13600
N49         N  0.83747463  0.94745500  0.83494009    -0.26500
N50         N  0.85012955  0.96659472  0.79740781    -0.34300
C51         C  0.83027340  0.00565774  0.79355122     0.01900
C52         C  0.80468697  0.01204473  0.83121763     0.07900
C53         C  0.81018794  0.97415121  0.85654859    -0.05200
H54         H  0.83675256  0.02847629  0.76672372     0.08600
H55         H  0.79858938  0.96789316  0.89007760     0.09800
Cu56       Cu  0.90280150  0.94515623  0.76083990     0.44200
Cu57       Cu  0.86518882  0.89172285  0.86124947     0.42000
Cu58       Cu  0.97525090  0.89116254  0.83719255     0.43900
N59         N  0.96402406  0.92628388  0.74289727    -0.33900
N60         N  0.99063127  0.90890115  0.77174171    -0.28100
C61         C  0.02751078  0.90086958  0.75081661    -0.04200
C62         C  0.02415728  0.91372011  0.70648678     0.08000
C63         C  0.98335929  0.92956167  0.70253810     0.01800
H64         H  0.05428235  0.88631504  0.76707644     0.09400
H65         H  0.96848387  0.94185075  0.67266817     0.08500
N66         N  0.94852213  0.85825561  0.89152408    -0.35300
N67         N  0.90733719  0.85375220  0.89630032    -0.27500
C68         C  0.89895109  0.82570829  0.93004485    -0.02700
C69         C  0.93686234  0.81284020  0.94840247     0.05900
C70         C  0.96769198  0.83451107  0.92338005     0.04000
H71         H  0.86751825  0.81579997  0.93999550     0.09100
H72         H  0.00144996  0.83280159  0.92736344     0.07900
C73         C  0.51818654  0.44774380  0.41678616     0.03900
C74         C  0.52440998  0.47890911  0.38245047    -0.12200
C75         C  0.49239344  0.50802974  0.36957480     0.01400
C76         C  0.45373635  0.50657527  0.39268562    -0.10700
C77         C  0.44751464  0.47800098  0.42931731     0.03900
C78         C  0.47881363  0.44665395  0.43907298    -0.10200
H79         H  0.55506006  0.48146704  0.36630506     0.09500
H80         H  0.42893132  0.52884805  0.38345724     0.07100
H81         H  0.47260858  0.42255639  0.46484306     0.06900
C82         C  0.59268265  0.02130994  0.05164450     0.03900
C83         C  0.63466605  0.01977458  0.03654639    -0.12200
C84         C  0.64955042  0.98352491  0.01132342     0.01400
C85         C  0.62313476  0.94624463  0.00610537    -0.10700
C86         C  0.58023587  0.94741794  0.01925961     0.03900
C87         C  0.56546564  0.98590486  0.04116617    -0.10200
H88         H  0.65466851  0.04843351  0.04141752     0.09500
H89         H  0.63536750  0.91782156  0.98804924     0.07100
H90         H  0.53229208  0.98941161  0.04871980     0.06900
N91         N  0.28370203  0.51322967  0.05163478    -0.02700
C92         C  0.28139666  0.47288791  0.07203224    -0.00100
C93         C  0.24881046  0.44788876  0.05458500    -0.23000
C94         C  0.23090659  0.47258505  0.02163922    -0.23200
C95         C  0.25233636  0.51239410  0.02072683    -0.00200
H96         H  0.23782984  0.41590620  0.06610305     0.13600
H97         H  0.20372372  0.46346461  0.00191983     0.13600
N98         N  0.56850605  0.65411015  0.21226463    -0.02700
C99         C  0.60312914  0.68112955  0.21287305    -0.00100
C100        C  0.62564312  0.67581675  0.25175593    -0.23000
C101        C  0.60509665  0.64413845  0.27612977    -0.23200
C102        C  0.57048434  0.63116498  0.25153134    -0.00200
H103        H  0.65410098  0.69325304  0.26126126     0.13600
H104        H  0.61389889  0.63227349  0.30890448     0.13600
N105        N  0.41717349  0.82186300  0.93942658    -0.02700
C106        C  0.44804141  0.85241214  0.93082426    -0.00100
C107        C  0.43830511  0.87685748  0.89331426    -0.23000
C108        C  0.40079490  0.86091905  0.87772101    -0.23200
C109        C  0.38799706  0.82774349  0.90662003    -0.00200
H110        H  0.45636363  0.90396961  0.87917966     0.13600
H111        H  0.38412859  0.87275321  0.84868802     0.13600
N112        N  0.39776429  0.73211792  0.01702599    -0.26500
N113        N  0.43909168  0.73632590  0.02012115    -0.34300
C114        C  0.45211550  0.77015092  0.99418191     0.01900
C115        C  0.41712695  0.78848452  0.97408796     0.07900
C116        C  0.38311144  0.76385288  0.98988875    -0.05200
H117        H  0.48475977  0.77940046  0.98928942     0.08600
H118        H  0.35029380  0.76750667  0.98157488     0.09800
Cu119      Cu  0.47519761  0.69661322  0.06116026     0.44200
Cu120      Cu  0.36482886  0.67834472  0.04339797     0.42000
Cu121      Cu  0.42245868  0.60689895  0.11830201     0.43900
N122        N  0.49926948  0.66477676  0.11677077    -0.33900
N123        N  0.47877447  0.63422337  0.13988665    -0.28100
C124        C  0.50026868  0.62540918  0.17749466    -0.04200
C125        C  0.53659261  0.65135455  0.17772880     0.08000
C126        C  0.53476712  0.67562461  0.13832409     0.01800
H127        H  0.48955157  0.60219008  0.20253121     0.09400
H128        H  0.55645211  0.70017100  0.12579339     0.08500
N129        N  0.36766804  0.58786396  0.08606311    -0.35300
N130        N  0.34579860  0.61442498  0.06017120    -0.27500
C131        C  0.31254407  0.59200640  0.04386415    -0.02700
C132        C  0.31327937  0.54907524  0.06051123     0.05900
C133        C  0.34928547  0.54765605  0.08656352     0.04000
H134        H  0.29033204  0.60643478  0.02117350     0.09100
H135        H  0.36240203  0.51960908  0.10364074     0.07900
C136        C  0.94451468  0.10211460  0.46955118     0.03900
C137        C  0.95069350  0.07152670  0.50417434    -0.12200
C138        C  0.98654643  0.07374318  0.53125675     0.01400
C139        C  0.01326367  0.11095034  0.52761258    -0.10700
C140        C  0.00592531  0.14405943  0.49549269     0.03900
C141        C  0.97131042  0.13903321  0.46667965    -0.10200
H142        H  0.92894180  0.04420508  0.50811988     0.09500
H143        H  0.04094474  0.11310693  0.54844945     0.07100
H144        H  0.96597275  0.16319035  0.44099156     0.06900
N145        N  0.69322591  0.32606091  0.46691286    -0.02700
C146        C  0.72786936  0.33166332  0.49292770    -0.00100
C147        C  0.73476102  0.37594963  0.50178767    -0.23000
C148        C  0.70292064  0.39857224  0.48145697    -0.23200
C149        C  0.67744351  0.36747883  0.46059238    -0.00200
H150        H  0.75836525  0.38993011  0.52373880     0.13600
H151        H  0.69682443  0.43366544  0.48483711     0.13600
N152        N  0.52131135  0.19171847  0.18588547    -0.02700
C153        C  0.51712390  0.17016594  0.14559514    -0.00100
C154        C  0.48472364  0.18814062  0.12121291    -0.23000
C155        C  0.46765328  0.22124562  0.14688232    -0.23200
C156        C  0.49001179  0.22266862  0.18631976    -0.00200
H157        H  0.47412040  0.17755504  0.08844801     0.13600
H158        H  0.44083233  0.24140011  0.13835134     0.13600
N159        N  0.80318408  0.02049336  0.31658532    -0.02700
C160        C  0.80303429  0.98162758  0.29285665    -0.00100
C161        C  0.83530660  0.95440254  0.30629777    -0.23000
C162        C  0.85654622  0.97653697  0.33901633    -0.23200
C163        C  0.83664571  0.01665615  0.34485054    -0.00200
H164        H  0.84265371  0.92177259  0.29329040     0.13600
H165        H  0.88440569  0.96518723  0.35606489     0.13600
N166        N  0.65324139  0.24132285  0.39256037    -0.26500
N167        N  0.69231005  0.22787596  0.39839349    -0.34300
C168        C  0.71097310  0.25404935  0.42888778     0.01900
C169        C  0.68232705  0.28568027  0.44331165     0.07900
C170        C  0.64580002  0.27633791  0.41973071    -0.05200
H171        H  0.74397871  0.25218565  0.43684539     0.08600
H172        H  0.61678056  0.29477216  0.42013085     0.09800
Cu173      Cu  0.72013144  0.17691443  0.36202632     0.44200
Cu174      Cu  0.61594971  0.21594526  0.34139892     0.42000
Cu175      Cu  0.66045148  0.12274022  0.27622391     0.43900
N176        N  0.73956169  0.11922477  0.33017644    -0.33900
N177        N  0.71662384  0.09726493  0.30070239    -0.28100
C178        C  0.73589667  0.05867999  0.29075486    -0.04200
C179        C  0.77338678  0.05681317  0.31454524     0.08000
C180        C  0.77440532  0.09602675  0.33908242     0.01800
H181        H  0.72302332  0.03402882  0.26831175     0.09400
H182        H  0.79768822  0.10715162  0.36267039     0.08500
N183        N  0.60750994  0.15876677  0.25774219    -0.35300
N184        N  0.59103932  0.19138431  0.28182732    -0.27500
C185        C  0.55762429  0.20771183  0.26017935    -0.02700
C186        C  0.55259091  0.18434201  0.22029715     0.05900
C187        C  0.58518994  0.15378209  0.21986102     0.04000
H188        H  0.53938073  0.23509727  0.27284731     0.09100
H189        H  0.59315984  0.13006243  0.19406825     0.07900
C190        C  0.32848691  0.37061266  0.30651947     0.03900
C191        C  0.36940349  0.35247723  0.31045455    -0.12200
C192        C  0.39882028  0.35486462  0.27477934     0.01400
C193        C  0.38973623  0.38197825  0.23809084    -0.10700
C194        C  0.35037298  0.40226875  0.23427422     0.03900
C195        C  0.31932535  0.39400763  0.26704325    -0.10200
H196        H  0.37742337  0.33300642  0.33946265     0.09500
H197        H  0.41189064  0.38418361  0.21034825     0.07100
H198        H  0.28747504  0.40443390  0.26048781     0.06900
C199        C  0.10433867  0.67110827  0.89243585     0.03900
C200        C  0.08513441  0.64006391  0.86338268    -0.12200
C201        C  0.10676299  0.60241344  0.84794185     0.01400
C202        C  0.14589355  0.59255612  0.86667202    -0.10700
C203        C  0.16486787  0.62117138  0.89778683     0.03900
C204        C  0.14555890  0.66211153  0.90725169    -0.10200
H205        H  0.05258162  0.64381863  0.85397387     0.09500
H206        H  0.16002973  0.56073649  0.85948613     0.07100
H207        H  0.16132209  0.68473373  0.92985320     0.06900
N208        N  0.15989442  0.28913576  0.42795687    -0.02700
C209        C  0.12801880  0.26059580  0.41750041    -0.00100
C210        C  0.12707003  0.25223876  0.37199840    -0.23000
C211        C  0.15983698  0.27547584  0.35333669    -0.23200
C212        C  0.17990059  0.29715032  0.38805004    -0.00200
H213        H  0.10593456  0.22991592  0.35460337     0.13600
H214        H  0.16952475  0.27478366  0.31843485     0.13600
N215        N  0.30851804  0.56476349  0.58247668    -0.02700
C216        C  0.30095666  0.60738833  0.59633618    -0.00100
C217        C  0.31678857  0.63708901  0.56529788    -0.23000
C218        C  0.33702146  0.61296234  0.53276885    -0.23200
C219        C  0.33236609  0.56906340  0.54423159    -0.00200
H220        H  0.31627051  0.67285519  0.56783954     0.13600
H221        H  0.35530035  0.62609630  0.50500637     0.13600
N222        N  0.01645971  0.43568491  0.72605505    -0.02700
C223        C  0.97739421  0.41726295  0.71994191    -0.00100
C224        C  0.94638043  0.44410873  0.73794210    -0.23000
C225        C  0.96624393  0.47903399  0.75796048    -0.23200
C226        C  0.00877639  0.47287313  0.75105477    -0.00200
H227        H  0.91288292  0.43724044  0.73909083     0.13600
H228        H  0.95143679  0.50525875  0.77720767     0.13600
N229        N  0.19122507  0.35699347  0.52268285    -0.26500
N230        N  0.15472899  0.34158024  0.53763040    -0.34300
C231        C  0.13907354  0.31308180  0.50706847     0.01900
C232        C  0.16725705  0.31023892  0.47108713     0.07900
C233        C  0.19997310  0.33873635  0.48237686    -0.05200
H234        H  0.10832848  0.29799642  0.51009032     0.08600
H235        H  0.22731859  0.34738873  0.46247340     0.09800
Cu236      Cu  0.12608071  0.36460081  0.59677927     0.44200
Cu237      Cu  0.22432592  0.40692346  0.55502120     0.42000
Cu238      Cu  0.17854544  0.45892013  0.65299209     0.43900
N239        N  0.10151843  0.39772224  0.65300753    -0.33900
N240        N  0.11979324  0.43230848  0.67226849    -0.28100
C241        C  0.09324974  0.44914976  0.70336942    -0.04200
C242        C  0.05629399  0.42390325  0.70431528     0.08000
C243        C  0.06321714  0.39133411  0.67192585     0.01800
H244        H  0.10015090  0.47904279  0.72181857     0.09400
H245        H  0.04184527  0.36581688  0.66101692     0.08500
N246        N  0.23456190  0.48141696  0.62243451    -0.35300
N247        N  0.25028661  0.46200111  0.58626041    -0.27500
C248        C  0.28180474  0.48685163  0.56961510    -0.02700
C249        C  0.28687987  0.52433225  0.59632719     0.05900
C250        C  0.25649363  0.51915489  0.63011328     0.04000
H251        H  0.29678389  0.47957132  0.53791906     0.09100
H252        H  0.24910784  0.54163364  0.65709484     0.07900
C253        C  0.04270524  0.54597838  0.75546364    -0.05000
C254        C  0.03972765  0.50289090  0.77214794     0.01000
C255        C  0.06043125  0.49194506  0.81231064    -0.07600
C256        C  0.08282524  0.52531168  0.83506106    -0.05000
C257        C  0.08544222  0.56897099  0.81886549     0.00900
C258        C  0.06599339  0.57914043  0.77736073    -0.07500
C259        C  0.06833423  0.62353923  0.75393129     0.62900
H260        H  0.02616878  0.55391754  0.72488098     0.13500
H261        H  0.09714947  0.51785129  0.86692054     0.13600
C262        C  0.05726815  0.44585741  0.83214166     0.63100
F263        F  0.08135437  0.61712873  0.70997548    -0.22100
F264        F  0.09609751  0.65280393  0.77346907    -0.19400
F265        F  0.02873177  0.64236421  0.75380931    -0.19100
F266        F  0.07355937  0.41525294  0.80216225    -0.19100
F267        F  0.01557351  0.43558995  0.84120702    -0.19500
F268        F  0.07949218  0.44246173  0.87170559    -0.22100
C269        C  0.29358242  0.31376849  0.35510251    -0.05000
C270        C  0.29341963  0.35749523  0.33855188     0.01000
C271        C  0.25708531  0.38401493  0.34797968    -0.07600
C272        C  0.22097615  0.36380001  0.36682912    -0.05000
C273        C  0.22090198  0.31955103  0.38030913     0.00900
C274        C  0.25835194  0.29478061  0.37660581    -0.07500
C275        C  0.26026134  0.24742210  0.39317632     0.62900
H276        H  0.32024898  0.29270990  0.34810706     0.13500
H277        H  0.19208524  0.38258201  0.37022333     0.13600
C278        C  0.25372736  0.43322596  0.33878592     0.63100
F279        F  0.30063477  0.23045646  0.39043135    -0.22100
F280        F  0.23414682  0.22066691  0.36782089    -0.19400
F281        F  0.24747005  0.24601668  0.43757167    -0.19100
F282        F  0.22714005  0.43986842  0.30300263    -0.19100
F283        F  0.29222049  0.45265506  0.32974385    -0.19500
F284        F  0.23689640  0.45448024  0.37605427    -0.22100
C285        C  0.41983559  0.27603613  0.27319589    -0.05000
C286        C  0.43245044  0.32060521  0.26911607     0.01000
C287        C  0.47201675  0.32992321  0.24849056    -0.07600
C288        C  0.49266796  0.29598548  0.22438072    -0.05000
C289        C  0.47667812  0.25258229  0.22346581     0.00900
C290        C  0.44162087  0.24173321  0.25098388    -0.07500
C291        C  0.42595718  0.19435036  0.25474577     0.62900
H292        H  0.39025871  0.26853610  0.28992268     0.13500
H293        H  0.52050796  0.30385687  0.20458125     0.13600
C294        C  0.49324060  0.37494261  0.25065196     0.63100
F295        F  0.39372295  0.19033958  0.28609550    -0.22100
F296        F  0.45868552  0.16756494  0.26798650    -0.19400
F297        F  0.41108261  0.17965418  0.21383198    -0.19100
F298        F  0.47165598  0.40444060  0.27795531    -0.19100
F299        F  0.49658285  0.39243625  0.20799675    -0.19500
F300        F  0.53326614  0.37015533  0.26788651    -0.22100
C301        C  0.89432304  0.06817743  0.35857032    -0.05000
C302        C  0.85582857  0.05090844  0.37394605     0.01000
C303        C  0.84411634  0.05684668  0.41952955    -0.07600
C304        C  0.87231021  0.07867826  0.44837519    -0.05000
C305        C  0.91286977  0.09177611  0.43413750     0.00900
C306        C  0.92405511  0.08682847  0.38791980    -0.07500
C307        C  0.96800374  0.09696977  0.36944930     0.62900
H308        H  0.90253008  0.06292131  0.32359376     0.13500
H309        H  0.86374791  0.08244396  0.48348700     0.13600
C310        C  0.80363352  0.03904288  0.44020833     0.63100
F311        F  0.97387750  0.07963189  0.32675526    -0.22100
F312        F  0.99842933  0.07867084  0.39644464    -0.19400
F313        F  0.97405860  0.14218394  0.36667577    -0.19100
F314        F  0.77744354  0.01882788  0.40947161    -0.19100
F315        F  0.78174849  0.07358148  0.46005658    -0.19500
F316        F  0.81336831  0.00843117  0.47278969    -0.22100
C317        C  0.05825189  0.24976564  0.45255796    -0.05000
C318        C  0.10015088  0.23610399  0.44875016     0.01000
C319        C  0.11222864  0.19509923  0.46711091    -0.07600
C320        C  0.08083173  0.16703638  0.48487166    -0.05000
C321        C  0.03812239  0.17950793  0.48655670     0.00900
C322        C  0.02742844  0.22324460  0.47340681    -0.07500
C323        C  0.98439723  0.24363119  0.48053826     0.62900
H324        H  0.04947869  0.28154356  0.43878299     0.13500
H325        H  0.08936173  0.13393425  0.49485855     0.13600
C326        C  0.15782669  0.18032742  0.46617409     0.63100
F327        F  0.98896150  0.28591408  0.49791859    -0.22100
F328        F  0.95996394  0.21970189  0.51038634    -0.19400
F329        F  0.96389359  0.24643201  0.43995342    -0.19100
F330        F  0.18218866  0.21097604  0.48889608    -0.19100
F331        F  0.17208677  0.17681175  0.42237127    -0.19500
F332        F  0.16297248  0.13964941  0.48654753    -0.22100
C333        C  0.25063971  0.54853828  0.94676315    -0.05000
C334        C  0.23822162  0.54893625  0.99195825     0.01000
C335        C  0.20681519  0.57865367  0.00684847    -0.07600
C336        C  0.18729131  0.60577932  0.97516203    -0.05000
C337        C  0.19702619  0.60299459  0.92895597     0.00900
C338        C  0.23091176  0.57534243  0.91481530    -0.07500
C339        C  0.24682529  0.57139902  0.86675851     0.62900
H340        H  0.27474660  0.52541874  0.93590210     0.13500
H341        H  0.16125992  0.62634588  0.98598302     0.13600
C342        C  0.19208707  0.57951486  0.05554932     0.63100
F343        F  0.29002993  0.57767262  0.86582159    -0.22100
F344        F  0.22927245  0.60212107  0.83839410    -0.19400
F345        F  0.23799052  0.52937393  0.85060272    -0.19100
F346        F  0.22567363  0.58870396  0.08327660    -0.19100
F347        F  0.17504623  0.53886027  0.06705240    -0.19500
F348        F  0.16168215  0.61143183  0.06320880    -0.22100
C349        C  0.30028417  0.48177260  0.15208661    -0.05000
C350        C  0.30506483  0.45811978  0.11177813     0.01000
C351        C  0.32951382  0.41898898  0.11093945    -0.07600
C352        C  0.34503379  0.40268887  0.15154363    -0.05000
C353        C  0.33905085  0.42550874  0.19225878     0.00900
C354        C  0.31912589  0.46748163  0.19188500    -0.07500
C355        C  0.31815729  0.49907562  0.23158042     0.62900
H356        H  0.28243876  0.51229755  0.15220406     0.13500
H357        H  0.36072703  0.37094396  0.15191893     0.13600
C358        C  0.33960872  0.39463146  0.06745147     0.63100
F359        F  0.33195026  0.54043271  0.21784512    -0.22100
F360        F  0.34404963  0.48595588  0.26598479    -0.19400
F361        F  0.27731122  0.50272014  0.24759013    -0.19100
F362        F  0.35533125  0.42421274  0.03616880    -0.19100
F363        F  0.30386584  0.37446029  0.05077098    -0.19500
F364        F  0.36958299  0.36212454  0.07357418    -0.22100
C365        C  0.48017888  0.87703061  0.00275002    -0.05000
C366        C  0.48579784  0.86311030  0.95815420     0.01000
C367        C  0.52568586  0.86926247  0.93744735    -0.07600
C368        C  0.55585914  0.89575825  0.95895001    -0.05000
C369        C  0.54970808  0.91258097  0.00272927     0.00900
C370        C  0.51237549  0.89936687  0.02636309    -0.07500
C371        C  0.50455027  0.90790222  0.07592759     0.62900
H372        H  0.44992349  0.87147017  0.01899305     0.13500
H373        H  0.58388515  0.90454111  0.93999243     0.13600
C374        C  0.53738720  0.84996519  0.89190367     0.63100
F375        F  0.48798593  0.87014275  0.09556076    -0.22100
F376        F  0.47570274  0.94172947  0.08119653    -0.19400
F377        F  0.54106216  0.91862675  0.09850726    -0.19100
F378        F  0.53945251  0.88353127  0.86059947    -0.19100
F379        F  0.50906334  0.81805025  0.87757520    -0.19500
F380        F  0.57647959  0.83010786  0.89434023    -0.22100
C381        C  0.56452541  0.13974638  0.08757628    -0.05000
C382        C  0.54157872  0.13210654  0.12735070     0.01000
C383        C  0.53572381  0.08778999  0.14199114    -0.07600
C384        C  0.55471898  0.05327634  0.11727768    -0.05000
C385        C  0.57611518  0.06074924  0.07649345     0.00900
C386        C  0.58006230  0.10490119  0.06061958    -0.07500
C387        C  0.59781959  0.11678759  0.01461493     0.62900
H388        H  0.56772232  0.17353263  0.07583960     0.13500
H389        H  0.55132132  0.01955350  0.12919046     0.13600
C390        C  0.50905767  0.07426780  0.18221603     0.63100
F391        F  0.57577616  0.15189087  0.99678954    -0.22100
F392        F  0.59466337  0.08218723  0.98425480    -0.19400
F393        F  0.63959626  0.12919584  0.01866152    -0.19100
F394        F  0.47905884  0.04371498  0.16869674    -0.19100
F395        F  0.48823423  0.10908595  0.20244964    -0.19500
F396        F  0.53459495  0.05477996  0.21372650    -0.22100
C397        C  0.34464210  0.52218061  0.47678239    -0.05000
C398        C  0.35694933  0.53416112  0.52024067     0.01000
C399        C  0.39624171  0.51928737  0.53624547    -0.07600
C400        C  0.42347089  0.49629016  0.50670725    -0.05000
C401        C  0.41249927  0.48744922  0.46191721     0.00900
C402        C  0.37101099  0.49724996  0.44815985    -0.07500
C403        C  0.35262573  0.48118017  0.40444784     0.62900
H404        H  0.31414360  0.53277315  0.46491541     0.13500
H405        H  0.45502423  0.48849528  0.51739853     0.13600
C406        C  0.41078540  0.53094104  0.58309178     0.63100
F407        F  0.31588517  0.45826559  0.41405299    -0.22100
F408        F  0.37907012  0.45282606  0.38108649    -0.19400
F409        F  0.34348603  0.51705773  0.37766259    -0.19100
F410        F  0.38164339  0.51578665  0.61421861    -0.19100
F411        F  0.41497028  0.57636580  0.58704260    -0.19500
F412        F  0.44925196  0.51202458  0.59275187    -0.22100
C413        C  0.57916593  0.40008311  0.39543886    -0.05000
C414        C  0.55468146  0.41936153  0.43012548     0.01000
C415        C  0.56990539  0.41725844  0.47484589    -0.07600
C416        C  0.60782190  0.39476843  0.48273132    -0.05000
C417        C  0.63368321  0.37897113  0.44775683     0.00900
C418        C  0.61956376  0.38263336  0.40298468    -0.07500
C419        C  0.64598233  0.37108300  0.36186286     0.62900
H420        H  0.56808008  0.40200824  0.36121605     0.13500
H421        H  0.61940372  0.39220760  0.51669187     0.13600
C422        C  0.54924303  0.44171435  0.51401354     0.63100
F423        F  0.62638085  0.33742680  0.33815635    -0.22100
F424        F  0.68629805  0.35771069  0.37204613    -0.19400
F425        F  0.64922168  0.40787266  0.33457759    -0.19100
F426        F  0.51344588  0.41941176  0.52802043    -0.19100
F427        F  0.53917827  0.48445453  0.50177044    -0.19500
F428        F  0.57580648  0.44486751  0.55047702    -0.22100
C429        C  0.52144935  0.52523655  0.29415922    -0.05000
C430        C  0.50166023  0.54111881  0.33355736     0.01000
C431        C  0.49822071  0.58775997  0.34019268    -0.07600
C432        C  0.51570076  0.61613778  0.30755811    -0.05000
C433        C  0.53934938  0.60002405  0.27113539     0.00900
C434        C  0.54220687  0.55382870  0.26394228    -0.07500
C435        C  0.56984031  0.53480681  0.22674775     0.62900
H436        H  0.52375316  0.48974556  0.28937456     0.13500
H437        H  0.51462035  0.65168818  0.31248700     0.13600
C438        C  0.47984478  0.60841192  0.38277581     0.63100
F439        F  0.56860844  0.48896803  0.22595785    -0.22100
F440        F  0.61120174  0.54788877  0.23294771    -0.19400
F441        F  0.55649163  0.54971053  0.18560154    -0.19100
F442        F  0.49559806  0.58787771  0.42036931    -0.19100
F443        F  0.43645467  0.60495541  0.38258702    -0.19500
F444        F  0.48985799  0.65298247  0.38626944    -0.22100
C445        C  0.75237108  0.02768172  0.96134774    -0.05000
C446        C  0.74254366  0.02640677  0.91542922     0.01000
C447        C  0.70578750  0.00338805  0.90166163    -0.07600
C448        C  0.67943643  0.98425716  0.93460949    -0.05000
C449        C  0.68687705  0.98969460  0.98080741     0.00900
C450        C  0.72531366  0.00972592  0.99437636    -0.07500
C451        C  0.73814527  0.01527416  0.04300009     0.62900
H452        H  0.78021288  0.04579520  0.97182957     0.13500
H453        H  0.65003891  0.96908887  0.92446919     0.13600
C454        C  0.69155434  0.00322469  0.85314245     0.63100
F455        F  0.77966820  0.00271251  0.04790203    -0.22100
F456        F  0.71388586  0.98980699  0.07183752    -0.19400
F457        F  0.73464835  0.05934455  0.05528461    -0.19100
F458        F  0.72095962  0.98223068  0.82627688    -0.19100
F459        F  0.68642295  0.04624705  0.83872503    -0.19500
F460        F  0.65353833  0.98123086  0.84773773    -0.22100
C461        C  0.01444594  0.04375253  0.60309255    -0.05000
C462        C  0.99876983  0.03527193  0.55979695     0.01000
C463        C  0.99952476  0.99094025  0.54313087    -0.07600
C464        C  0.01197876  0.95695260  0.57198890    -0.05000
C465        C  0.03052509  0.96576098  0.61358931     0.00900
C466        C  0.03313039  0.01021918  0.62895314    -0.07500
C467        C  0.05871718  0.02298309  0.66991433     0.62900
H468        H  0.01454045  0.07758468  0.61528807     0.13500
H469        H  0.01172626  0.92299708  0.55997661     0.13600
C470        C  0.99313051  0.97901772  0.49384333     0.63100
F471        F  0.06148823  0.06847681  0.67525423    -0.22100
F472        F  0.09926093  0.00684820  0.66554766    -0.19400
F473        F  0.04033276  0.00590659  0.70819474    -0.19100
F474        F  0.01054200  0.01105916  0.46624773    -0.19100
F475        F  0.95075404  0.97412538  0.48488467    -0.19500
F476        F  0.01270874  0.93948756  0.48282060    -0.22100
C477        C  0.00950840  0.74197172  0.91963027    -0.05000
C478        C  0.01531090  0.75089591  0.96541075     0.01000
C479        C  0.05588821  0.74417939  0.98363657    -0.07600
C480        C  0.08525888  0.71912278  0.95894242    -0.05000
C481        C  0.07839082  0.70744245  0.91371379     0.00900
C482        C  0.04255594  0.72579039  0.89265653    -0.07500
C483        C  0.03914680  0.73209553  0.84255050     0.62900
H484        H  0.97932851  0.74807643  0.90433954     0.13500
H485        H  0.11310735  0.70818842  0.97614217     0.13600
C486        C  0.06955431  0.76229045  0.02883445     0.63100
F487        F  0.02864944  0.77564986  0.83399599    -0.22100
F488        F  0.00801482  0.70482049  0.82547998    -0.19400
F489        F  0.07689395  0.72380258  0.82081879    -0.19100
F490        F  0.07385794  0.72789657  0.05882249    -0.19100
F491        F  0.04153224  0.79293714  0.04628866    -0.19500
F492        F  0.10810269  0.78343797  0.02396443    -0.22100
C493        C  0.79485714  0.14669784  0.71528115    -0.05000
C494        C  0.83828027  0.15512929  0.70904871     0.01000
C495        C  0.86689251  0.13368306  0.73834829    -0.07600
C496        C  0.85098839  0.11324178  0.77745454    -0.05000
C497        C  0.80762902  0.10715488  0.78449216     0.00900
C498        C  0.77929324  0.12138001  0.75129195    -0.07500
C499        C  0.73260747  0.11030005  0.75423541     0.62900
H500        H  0.77244325  0.16205618  0.69330527     0.13500
H501        H  0.87266606  0.10108484  0.80236885     0.13600
C502        C  0.91385834  0.12981064  0.72948008     0.63100
F503        F  0.71116245  0.12422403  0.71668068    -0.22100
F504        F  0.71442088  0.13036371  0.79133732    -0.19400
F505        F  0.72764727  0.06490977  0.75743784    -0.19100
F506        F  0.93561443  0.15560546  0.76005559    -0.19100
F507        F  0.92506660  0.14218926  0.68640229    -0.19500
F508        F  0.92587859  0.08615474  0.73463098    -0.22100
C509        C  0.92806137  0.30360910  0.72164682    -0.05000
C510        C  0.92178874  0.29521613  0.67563000     0.01000
C511        C  0.94327032  0.32308627  0.64433925    -0.07600
C512        C  0.96131627  0.36301163  0.65953508    -0.05000
C513        C  0.96654292  0.37164053  0.70526149     0.00900
C514        C  0.95205480  0.33995725  0.73680514    -0.07500
C515        C  0.96109993  0.34502658  0.78652831     0.62900
H516        H  0.91253477  0.28298968  0.74629383     0.13500
H517        H  0.97276424  0.38705049  0.63537699     0.13600
C518        C  0.95049612  0.31140480  0.59545912     0.63100
F519        F  0.94990618  0.30739005  0.81021122    -0.22100
F520        F  0.93897285  0.38022540  0.80458668    -0.19400
F521        F  0.00375369  0.35217614  0.79234127    -0.19100
F522        F  0.92656989  0.33861704  0.56875956    -0.19100
F523        F  0.94111727  0.26762974  0.58621381    -0.19500
F524        F  0.99261665  0.31786944  0.58483607    -0.22100
C525        C  0.76068422  0.25722979  0.58803790    -0.05000
C526        C  0.80280276  0.24893048  0.57608102     0.01000
C527        C  0.81698255  0.25971281  0.53225380    -0.07600
C528        C  0.79104956  0.28545401  0.50488291    -0.05000
C529        C  0.74999160  0.29668219  0.51816883     0.00900
C530        C  0.73365655  0.28043056  0.55932738    -0.07500
C531        C  0.68858224  0.28970035  0.57381476     0.62900
H532        H  0.74994451  0.24801337  0.62130578     0.13500
H533        H  0.80310431  0.29721841  0.47292638     0.13600
C534        C  0.85869244  0.24438597  0.51281934     0.63100
F535        F  0.67875689  0.27011759  0.61448412    -0.22100
F536        F  0.66120687  0.27299865  0.54208238    -0.19400
F537        F  0.68248786  0.33482272  0.57821000    -0.19100
F538        F  0.87887299  0.21477842  0.54038978    -0.19100
F539        F  0.88464321  0.28056749  0.50553121    -0.19500
F540        F  0.85170296  0.22322525  0.47225414    -0.22100
C541        C  0.86388685  0.83622099  0.02885398    -0.05000
C542        C  0.87110496  0.79055932  0.02469970     0.01000
C543        C  0.83711601  0.76075590  0.03214355    -0.07600
C544        C  0.79974828  0.77697196  0.05129702    -0.05000
C545        C  0.79303993  0.82255201  0.05788016     0.00900
C546        C  0.82410220  0.85266668  0.04162948    -0.07500
C547        C  0.81628497  0.90171639  0.03572063     0.62900
H548        H  0.88931153  0.85924816  0.02151750     0.13500
H549        H  0.77612503  0.75323657  0.06212732     0.13600
C550        C  0.83849151  0.71165601  0.02092643     0.63100
F551        F  0.82958485  0.91436096  0.99331571    -0.22100
F552        F  0.83879572  0.92556094  0.06722531    -0.19400
F553        F  0.77401765  0.91204349  0.03952785    -0.19100
F554        F  0.83781506  0.68744869  0.06015195    -0.19100
F555        F  0.87355125  0.69991625  0.99580488    -0.19500
F556        F  0.80338912  0.70047425  0.99603426    -0.22100
C557        C  0.76000085  0.94874400  0.17997676    -0.05000
C558        C  0.74063258  0.90819701  0.19142707     0.01000
C559        C  0.73576872  0.89733259  0.23768699    -0.07600
C560        C  0.74982690  0.92797748  0.27003099    -0.05000
C561        C  0.77324569  0.96573052  0.25834383     0.00900
C562        C  0.77860058  0.97646265  0.21249647    -0.07500
C563        C  0.80677998  0.01464184  0.19774940     0.62900
H564        H  0.76356051  0.95669576  0.14476627     0.13500
H565        H  0.74695604  0.92004487  0.30533793     0.13600
C566        C  0.72043265  0.85222363  0.25406992     0.63100
F567        F  0.80923559  0.01786129  0.15149316    -0.22100
F568        F  0.84713415  0.00859667  0.21358644    -0.19400
F569        F  0.79127420  0.05414788  0.21426402    -0.19100
F570        F  0.73655456  0.81850844  0.22753322    -0.19100
F571        F  0.67694085  0.85056600  0.25396766    -0.19500
F572        F  0.73334205  0.84416590  0.29749840    -0.22100
C573        C  0.67288214  0.73801394  0.12802145    -0.05000
C574        C  0.65739074  0.78169590  0.13012415     0.01000
C575        C  0.61759658  0.78892748  0.15095521    -0.07600
C576        C  0.59956681  0.75492348  0.17698720    -0.05000
C577        C  0.61749317  0.71262825  0.17816322     0.00900
C578        C  0.65288979  0.70309213  0.15086881    -0.07500
C579        C  0.67035226  0.65645457  0.14748268     0.62900
H580        H  0.70280009  0.73169968  0.11160706     0.13500
H581        H  0.57124740  0.76138009  0.19651088     0.13600
C582        C  0.59270135  0.83117113  0.14585023     0.63100
F583        F  0.70174410  0.65324490  0.11509543    -0.22100
F584        F  0.63837448  0.62731877  0.13606407    -0.19400
F585        F  0.68708961  0.64395024  0.18807678    -0.19100
F586        F  0.61058748  0.85948685  0.11463549    -0.19100
F587        F  0.58960129  0.85272626  0.18678214    -0.19500
F588        F  0.55261756  0.82054048  0.13143215    -0.22100
C589        C  0.12009896  0.78114869  0.74031032    -0.05000
C590        C  0.15909907  0.79681959  0.75603751     0.01000
C591        C  0.17017531  0.84197213  0.74892994    -0.07600
C592        C  0.14208667  0.86919695  0.72579233    -0.05000
C593        C  0.10479967  0.85265833  0.70729069     0.00900
C594        C  0.09274768  0.80822345  0.71574314    -0.07500
C595        C  0.05277447  0.78706136  0.69800673     0.62900
H596        H  0.11209592  0.74651018  0.74483899     0.13500
H597        H  0.15064298  0.90324780  0.71867818     0.13600
C598        C  0.21241980  0.86131784  0.76279954     0.63100
F599        F  0.06323129  0.75292189  0.66893512    -0.22100
F600        F  0.02742851  0.81646693  0.67558513    -0.19400
F601        F  0.02969027  0.76988628  0.73349369    -0.19100
F602        F  0.24502833  0.83377369  0.74970008    -0.19100
F603        F  0.21263990  0.86700505  0.80867180    -0.19500
F604        F  0.21993674  0.90227826  0.74358457    -0.22100
C605        C  0.27621469  0.80616596  0.87143851    -0.05000
C606        C  0.27735796  0.76107788  0.85905540     0.01000
C607        C  0.31139359  0.73575274  0.87607354    -0.07600
C608        C  0.34752209  0.75793537  0.89200619    -0.05000
C609        C  0.34745581  0.80377578  0.89996441     0.00900
C610        C  0.30956325  0.82732866  0.89348387    -0.07500
C611        C  0.30302065  0.87531689  0.90737894     0.62900
H612        H  0.24979272  0.82645921  0.86284522     0.13500
H613        H  0.37566414  0.73910870  0.89900430     0.13600
C614        C  0.30956513  0.68611663  0.88198929     0.63100
F615        F  0.26564426  0.87878908  0.93137717    -0.22100
F616        F  0.30041139  0.90129537  0.86945645    -0.19400
F617        F  0.33475707  0.89159845  0.93437918    -0.19100
F618        F  0.33774861  0.66577535  0.85294399    -0.19100
F619        F  0.26945569  0.66986752  0.87495314    -0.19500
F620        F  0.32035879  0.67571127  0.92553652    -0.22100
C621        C  0.29780270  0.66947206  0.70746968    -0.05000
C622        C  0.25439518  0.67121188  0.71675179     0.01000
C623        C  0.22697086  0.64496004  0.68987200    -0.07600
C624        C  0.24279467  0.62505311  0.65037327    -0.05000
C625        C  0.28612652  0.62331813  0.64120513     0.00900
C626        C  0.31430092  0.64447623  0.67146641    -0.07500
C627        C  0.36180190  0.64113912  0.66591735     0.62900
H628        H  0.31900795  0.68932802  0.72749769     0.13500
H629        H  0.22115763  0.60935284  0.62720009     0.13600
C630        C  0.18152710  0.63548086  0.70243451     0.63100
F631        F  0.38286169  0.65951515  0.70203911    -0.22100
F632        F  0.37527055  0.66303331  0.62782391    -0.19400
F633        F  0.37291102  0.59708503  0.66297975    -0.19100
F634        F  0.15519998  0.66028305  0.67590888    -0.19100
F635        F  0.17351771  0.64459501  0.74713808    -0.19500
F636        F  0.17269276  0.59101361  0.69560987    -0.22100
loop_ 
_geom_bond_atom_site_label_1 
_geom_bond_atom_site_label_2 
_geom_bond_distance 
_geom_bond_site_symmetry_2 
_ccdc_geom_bond_type 
C1            C2   1.401       .  A
C1            C6   1.405       .  A
C1          C590   1.493       .  S
C2            C3   1.404       .  A
C2            H7   1.083       .  S
C3            C4   1.412       .  A
C3          C622   1.505       .  S
C4            C5   1.417       .  A
C4            H8   1.076       .  S
C5            C6   1.418       .  A
C5          C606   1.521       .  S
C6            H9   1.080       .  S
C10          C11   1.402       .  A
C10          C15   1.406       .  A
C10         C558   1.498       .  S
C11          C12   1.408       .  A
C11          H16   1.075       .  S
C12          C13   1.407       .  A
C12         C574   1.498       .  S
C13          C14   1.407       .  A
C13          H17   1.083       .  S
C14          C15   1.407       .  A
C14         C545   1.498       .  S
C15          H18   1.082       .  S
C19          C20   1.403       .  A
C19          C24   1.402       .  A
C19         C526   1.488       .  S
C20          C21   1.407       .  A
C20          H25   1.082       .  S
C21          C22   1.413       .  A
C21         C510   1.510       .  S
C22          C23   1.414       .  A
C22          H26   1.077       .  S
C23          C24   1.413       .  A
C23         C494   1.510       .  S
C24          H27   1.083       .  S
N28          C32   1.366       .  A
N28          C29   1.364   1_556  A
N28          C69   1.447       .  S
C29          C30   1.380       .  A
C29         C542   1.485       .  S
C30          C31   1.367       .  A
C30          H33   1.082       .  S
C31          C32   1.385   1_554  A
C31          H34   1.082       .  S
C32         C478   1.492   1_655  S
N35          C39   1.365       .  A
N35          C36   1.365       .  A
N35          C62   1.448       .  S
C36          C37   1.379       .  A
C36         C593   1.480       .  S
C37          C38   1.365       .  A
C37          H40   1.082       .  S
C38          C39   1.383       .  A
C38          H41   1.083       .  S
C39         C465   1.486       .  S
N42          C46   1.369       .  A
N42          C43   1.368       .  A
N42          C52   1.453       .  S
C43          C44   1.380       .  A
C43         C497   1.485       .  S
C44          C45   1.366       .  A
C44          H47   1.083       .  S
C45          C46   1.381       .  A
C45          H48   1.083       .  S
C46         C446   1.492       .  S
N49          C53   1.344       .  A
N49          N50   1.321       .  A
N49         Cu57   2.066       .  S
N50          C51   1.347   1_565  A
N50         Cu56   2.091       .  S
C51          C52   1.393       .  A
C51          H54   1.076       .  S
C52          C53   1.388   1_545  A
C53          H55   1.079       .  S
Cu56         N59   2.092       .  S
Cu57         N67   2.063       .  S
Cu58         N60   2.080       .  S
Cu58         N66   2.077       .  S
N59          C63   1.350       .  A
N59          N60   1.324       .  A
N60          C61   1.344   1_655  A
C61          C62   1.385       .  A
C61          H64   1.079       .  S
C62          C63   1.389   1_455  A
C63          H65   1.081       .  S
N66          C70   1.346       .  A
N66          N67   1.320       .  A
N67          C68   1.343       .  A
C68          C69   1.385       .  A
C68          H71   1.080       .  S
C69          C70   1.388       .  A
C70          H72   1.081   1_655  S
C73          C74   1.407       .  A
C73          C78   1.410       .  A
C73         C414   1.503       .  S
C74          C75   1.405       .  A
C74          H79   1.084       .  S
C75          C76   1.402       .  A
C75         C430   1.497       .  S
C76          C77   1.408       .  A
C76          H80   1.077       .  S
C77          C78   1.410       .  A
C77         C401   1.497       .  S
C78          H81   1.077       .  S
C82          C83   1.404       .  A
C82          C87   1.407   1_545  A
C82         C385   1.494       .  S
C83          C84   1.406   1_545  A
C83          H88   1.081       .  S
C84          C85   1.409       .  A
C84         C449   1.499   1_554  S
C85          C86   1.414       .  A
C85          H89   1.083   1_554  S
C86          C87   1.410       .  A
C86         C369   1.510       .  S
C87          H90   1.080       .  S
N91          C95   1.363       .  A
N91          C92   1.366       .  A
N91         C132   1.454       .  S
C92          C93   1.381       .  A
C92         C350   1.481       .  S
C93          C94   1.367       .  A
C93          H96   1.082       .  S
C94          C95   1.378       .  A
C94          H97   1.082       .  S
C95         C334   1.476   1_554  S
N98         C102   1.366       .  A
N98          C99   1.366       .  A
N98         C125   1.453       .  S
C99         C100   1.378       .  A
C99         C577   1.477       .  S
C100        C101   1.364       .  A
C100        H103   1.083       .  S
C101        C102   1.381       .  A
C101        H104   1.083       .  S
C102        C433   1.479       .  S
N105        C109   1.367       .  A
N105        C106   1.366       .  A
N105        C115   1.448       .  S
C106        C107   1.382       .  A
C106        C366   1.489       .  S
C107        C108   1.367       .  A
C107        H110   1.082       .  S
C108        C109   1.382       .  A
C108        H111   1.082       .  S
C109        C609   1.488       .  S
N112        C116   1.346   1_554  A
N112        N113   1.322       .  A
N112       Cu120   2.081       .  S
N113        C114   1.346   1_554  A
N113       Cu119   2.076       .  S
C114        C115   1.387       .  A
C114        H117   1.081       .  S
C115        C116   1.388       .  A
C116        H118   1.080       .  S
Cu119       N122   2.076       .  S
Cu120       N130   2.082       .  S
Cu121       N123   2.072       .  S
Cu121       N129   2.072       .  S
N122        C126   1.341       .  A
N122        N123   1.320       .  A
N123        C124   1.347       .  A
C124        C125   1.391       .  A
C124        H127   1.079       .  S
C125        C126   1.390       .  A
C126        H128   1.075       .  S
N129        C133   1.345       .  A
N129        N130   1.321       .  A
N130        C131   1.345       .  A
C131        C132   1.391       .  A
C131        H134   1.077       .  S
C132        C133   1.389       .  A
C133        H135   1.078       .  S
C136        C137   1.405       .  A
C136        C141   1.401       .  A
C136        C305   1.495       .  S
C137        C138   1.403       .  A
C137        H142   1.079       .  S
C138        C139   1.408   1_655  A
C138        C462   1.499       .  S
C139        C140   1.410       .  A
C139        H143   1.083       .  S
C140        C141   1.408   1_455  A
C140        C321   1.499       .  S
C141        H144   1.076       .  S
N145        C149   1.365       .  A
N145        C146   1.361       .  A
N145        C169   1.447       .  S
C146        C147   1.379       .  A
C146        C529   1.484       .  S
C147        C148   1.371       .  A
C147        H150   1.082       .  S
C148        C149   1.385       .  A
C148        H151   1.082       .  S
C149        C417   1.488       .  S
N152        C156   1.368       .  A
N152        C153   1.370       .  A
N152        C186   1.454       .  S
C153        C154   1.381       .  A
C153        C382   1.488       .  S
C154        C155   1.367       .  A
C154        H157   1.082       .  S
C155        C156   1.380       .  A
C155        H158   1.082       .  S
C156        C289   1.485       .  S
N159        C163   1.368       .  A
N159        C160   1.367   1_545  A
N159        C179   1.454       .  S
C160        C161   1.381       .  A
C160        C561   1.481       .  S
C161        C162   1.361       .  A
C161        H164   1.083       .  S
C162        C163   1.379   1_565  A
C162        H165   1.083       .  S
C163        C302   1.479       .  S
N166        C170   1.349       .  A
N166        N167   1.321       .  A
N166       Cu174   2.080       .  S
N167        C168   1.342       .  A
N167       Cu173   2.074       .  S
C168        C169   1.386       .  A
C168        H171   1.078       .  S
C169        C170   1.389       .  A
C170        H172   1.079       .  S
Cu173       N176   2.073       .  S
Cu174       N184   2.082       .  S
Cu175       N177   2.086       .  S
Cu175       N183   2.087       .  S
N176        C180   1.342       .  A
N176        N177   1.320       .  A
N177        C178   1.349       .  A
C178        C179   1.393       .  A
C178        H181   1.080       .  S
C179        C180   1.389       .  A
C180        H182   1.076       .  S
N183        C187   1.346       .  A
N183        N184   1.323       .  A
N184        C185   1.344       .  A
C185        C186   1.389       .  A
C185        H188   1.077       .  S
C186        C187   1.390       .  A
C187        H189   1.077       .  S
C190        C191   1.419       .  A
C190        C195   1.410       .  A
C190        C270   1.513       .  S
C191        C192   1.411       .  A
C191        H196   1.082       .  S
C192        C193   1.403       .  A
C192        C286   1.498       .  S
C193        C194   1.401       .  A
C193        H197   1.083       .  S
C194        C195   1.404       .  A
C194        C353   1.488       .  S
C195        H198   1.081       .  S
C199        C200   1.413       .  A
C199        C204   1.413       .  A
C199        C481   1.509       .  S
C200        C201   1.405       .  A
C200        H205   1.080       .  S
C201        C202   1.401       .  A
C201        C257   1.491       .  S
C202        C203   1.402       .  A
C202        H206   1.082       .  S
C203        C204   1.409       .  A
C203        C337   1.496       .  S
C204        H207   1.081       .  S
N208        C212   1.366       .  A
N208        C209   1.363       .  A
N208        C232   1.452       .  S
C209        C210   1.379       .  A
C209        C318   1.478       .  S
C210        C211   1.367       .  A
C210        H213   1.082       .  S
C211        C212   1.381       .  A
C211        H214   1.082       .  S
C212        C273   1.480       .  S
N215        C219   1.369       .  A
N215        C216   1.371       .  A
N215        C249   1.458       .  S
C216        C217   1.382       .  A
C216        C625   1.492       .  S
C217        C218   1.367       .  A
C217        H220   1.083       .  S
C218        C219   1.378       .  A
C218        H221   1.082       .  S
C219        C398   1.490       .  S
N222        C226   1.366       .  A
N222        C223   1.370   1_455  A
N222        C242   1.460       .  S
C223        C224   1.381       .  A
C223        C513   1.483       .  S
C224        C225   1.364       .  A
C224        H227   1.083       .  S
C225        C226   1.377   1_655  A
C225        H228   1.082       .  S
C226        C254   1.476       .  S
N229        C233   1.347       .  A
N229        N230   1.321       .  A
N229       Cu237   2.072       .  S
N230        C231   1.347       .  A
N230       Cu236   2.094       .  S
C231        C232   1.393       .  A
C231        H234   1.078       .  S
C232        C233   1.388       .  A
C233        H235   1.079       .  S
Cu236       N239   2.094       .  S
Cu237       N247   2.073       .  S
Cu238       N240   2.103       .  S
Cu238       N246   2.102       .  S
N239        C243   1.349       .  A
N239        N240   1.323       .  A
N240        C241   1.346       .  A
C241        C242   1.396       .  A
C241        H244   1.077       .  S
C242        C243   1.391       .  A
C243        H245   1.075       .  S
N246        C250   1.352       .  A
N246        N247   1.320       .  A
N247        C248   1.341       .  A
C248        C249   1.390       .  A
C248        H251   1.076       .  S
C249        C250   1.397       .  A
C250        H252   1.075       .  S
C253        C254   1.398       .  A
C253        C258   1.403       .  A
C253        H260   1.085       .  S
C254        C255   1.413       .  A
C255        C256   1.405       .  A
C255        C262   1.518       .  S
C256        C257   1.409       .  A
C256        H261   1.083       .  S
C257        C258   1.424       .  A
C258        C259   1.517       .  S
C259        F263   1.383       .  S
C259        F264   1.376       .  S
C259        F265   1.383       .  S
C262        F266   1.381       .  S
C262        F267   1.382       .  S
C262        F268   1.385       .  S
C269        C270   1.412       .  A
C269        C274   1.405       .  A
C269        H276   1.080       .  S
C270        C271   1.433       .  A
C271        C272   1.410       .  A
C271        C278   1.517       .  S
C272        C273   1.398       .  A
C272        H277   1.085       .  S
C273        C274   1.411       .  A
C274        C275   1.518       .  S
C275        F279   1.384       .  S
C275        F280   1.382       .  S
C275        F281   1.382       .  S
C278        F282   1.383       .  S
C278        F283   1.378       .  S
C278        F284   1.384       .  S
C285        C286   1.408       .  A
C285        C290   1.408       .  A
C285        H292   1.082       .  S
C286        C287   1.421       .  A
C287        C288   1.410       .  A
C287        C294   1.515       .  S
C288        C289   1.403       .  A
C288        H293   1.084       .  S
C289        C290   1.415       .  A
C290        C291   1.517       .  S
C291        F295   1.385       .  S
C291        F296   1.382       .  S
C291        F297   1.382       .  S
C294        F298   1.383       .  S
C294        F299   1.383       .  S
C294        F300   1.384       .  S
C301        C302   1.400       .  A
C301        C306   1.407       .  A
C301        H308   1.084       .  S
C302        C303   1.416       .  A
C303        C304   1.406       .  A
C303        C310   1.517       .  S
C304        C305   1.407       .  A
C304        H309   1.085       .  S
C305        C306   1.427       .  A
C306        C307   1.525       .  S
C307        F311   1.385       .  S
C307        F312   1.383       .  S
C307        F313   1.381       .  S
C310        F314   1.381       .  S
C310        F315   1.383       .  S
C310        F316   1.383       .  S
C317        C318   1.398       .  A
C317        C322   1.404       .  A
C317        H324   1.085       .  S
C318        C319   1.413       .  A
C319        C320   1.406       .  A
C319        C326   1.517       .  S
C320        C321   1.410       .  A
C320        H325   1.081       .  S
C321        C322   1.424       .  A
C322        C323   1.514   1_455  S
C323        F327   1.383       .  S
C323        F328   1.380       .  S
C323        F329   1.383       .  S
C326        F330   1.382       .  S
C326        F331   1.382       .  S
C326        F332   1.385       .  S
C333        C334   1.400       .  A
C333        C338   1.407       .  A
C333        H340   1.085       .  S
C334        C335   1.412   1_556  A
C335        C336   1.405   1_554  A
C335        C342   1.521       .  S
C336        C337   1.411       .  A
C336        H341   1.082       .  S
C337        C338   1.425       .  A
C338        C339   1.519       .  S
C339        F343   1.384       .  S
C339        F344   1.382       .  S
C339        F345   1.383       .  S
C342        F346   1.382       .  S
C342        F347   1.383       .  S
C342        F348   1.384       .  S
C349        C350   1.402       .  A
C349        C354   1.405       .  A
C349        H356   1.085       .  S
C350        C351   1.417       .  A
C351        C352   1.404       .  A
C351        C358   1.520       .  S
C352        C353   1.404       .  A
C352        H357   1.083       .  S
C353        C354   1.420       .  A
C354        C355   1.516       .  S
C355        F359   1.384       .  S
C355        F360   1.382       .  S
C355        F361   1.382       .  S
C358        F362   1.383       .  S
C358        F363   1.381       .  S
C358        F364   1.385       .  S
C365        C366   1.402   1_554  A
C365        C370   1.413       .  A
C365        H372   1.084       .  S
C366        C367   1.415       .  A
C367        C368   1.402       .  A
C367        C374   1.518       .  S
C368        C369   1.410   1_556  A
C368        H373   1.082       .  S
C369        C370   1.429       .  A
C370        C371   1.517       .  S
C371        F375   1.384       .  S
C371        F376   1.383       .  S
C371        F377   1.382       .  S
C374        F378   1.383       .  S
C374        F379   1.383       .  S
C374        F380   1.384       .  S
C381        C382   1.405       .  A
C381        C386   1.409       .  A
C381        H388   1.085       .  S
C382        C383   1.421       .  A
C383        C384   1.408       .  A
C383        C390   1.518       .  S
C384        C385   1.406       .  A
C384        H389   1.085       .  S
C385        C386   1.422       .  A
C386        C387   1.522       .  S
C387        F391   1.385   1_554  S
C387        F392   1.382   1_554  S
C387        F393   1.382       .  S
C390        F394   1.384       .  S
C390        F395   1.378       .  S
C390        F396   1.383       .  S
C397        C398   1.402       .  A
C397        C402   1.408       .  A
C397        H404   1.085       .  S
C398        C399   1.416       .  A
C399        C400   1.411       .  A
C399        C406   1.514       .  S
C400        C401   1.407       .  A
C400        H405   1.082       .  S
C401        C402   1.417       .  A
C402        C403   1.510       .  S
C403        F407   1.382       .  S
C403        F408   1.383       .  S
C403        F409   1.383       .  S
C406        F410   1.382       .  S
C406        F411   1.382       .  S
C406        F412   1.384       .  S
C413        C414   1.413       .  A
C413        C418   1.410       .  A
C413        H420   1.085       .  S
C414        C415   1.425       .  A
C415        C416   1.408       .  A
C415        C422   1.523       .  S
C416        C417   1.404       .  A
C416        H421   1.084       .  S
C417        C418   1.417       .  A
C418        C419   1.519       .  S
C419        F423   1.383       .  S
C419        F424   1.381       .  S
C419        F425   1.384       .  S
C422        F426   1.380       .  S
C422        F427   1.383       .  S
C422        F428   1.385       .  S
C429        C430   1.410       .  A
C429        C434   1.408       .  A
C429        H436   1.083       .  S
C430        C431   1.426       .  A
C431        C432   1.408       .  A
C431        C438   1.524       .  S
C432        C433   1.401       .  A
C432        H437   1.083       .  S
C433        C434   1.414       .  A
C434        C435   1.520       .  S
C435        F439   1.385       .  S
C435        F440   1.383       .  S
C435        F441   1.381       .  S
C438        F442   1.383       .  S
C438        F443   1.381       .  S
C438        F444   1.385       .  S
C445        C446   1.407       .  A
C445        C450   1.410       .  A
C445        H452   1.085       .  S
C446        C447   1.418       .  A
C447        C448   1.409   1_545  A
C447        C454   1.520       .  S
C448        C449   1.408       .  A
C448        H453   1.082       .  S
C449        C450   1.420   1_565  A
C450        C451   1.518   1_556  S
C451        F455   1.383       .  S
C451        F456   1.383   1_545  S
C451        F457   1.383       .  S
C454        F458   1.379   1_545  S
C454        F459   1.382       .  S
C454        F460   1.385   1_545  S
C461        C462   1.410   1_455  A
C461        C466   1.413       .  A
C461        H468   1.083       .  S
C462        C463   1.426   1_545  A
C463        C464   1.404   1_655  A
C463        C470   1.526       .  S
C464        C465   1.402       .  A
C464        H469   1.084       .  S
C465        C466   1.418   1_565  A
C466        C467   1.520       .  S
C467        F471   1.385       .  S
C467        F472   1.383       .  S
C467        F473   1.378       .  S
C470        F474   1.383   1_665  S
C470        F475   1.381       .  S
C470        F476   1.385   1_655  S
C477        C478   1.404       .  A
C477        C482   1.404       .  A
C477        H484   1.082   1_455  S
C478        C479   1.419       .  A
C479        C480   1.404       .  A
C479        C486   1.518   1_556  S
C480        C481   1.411       .  A
C480        H485   1.081       .  S
C481        C482   1.421       .  A
C482        C483   1.512       .  S
C483        F487   1.384       .  S
C483        F488   1.382       .  S
C483        F489   1.380       .  S
C486        F490   1.383       .  S
C486        F491   1.383       .  S
C486        F492   1.384       .  S
C493        C494   1.411       .  A
C493        C498   1.406       .  A
C493        H500   1.080       .  S
C494        C495   1.427       .  A
C495        C496   1.410       .  A
C495        C502   1.517       .  S
C496        C497   1.402       .  A
C496        H501   1.084       .  S
C497        C498   1.414       .  A
C498        C499   1.519       .  S
C499        F503   1.385       .  S
C499        F504   1.381       .  S
C499        F505   1.383       .  S
C502        F506   1.383       .  S
C502        F507   1.383       .  S
C502        F508   1.384       .  S
C509        C510   1.410       .  A
C509        C514   1.408       .  A
C509        H516   1.080       .  S
C510        C511   1.426       .  A
C511        C512   1.407       .  A
C511        C518   1.513       .  S
C512        C513   1.398       .  A
C512        H517   1.085       .  S
C513        C514   1.417       .  A
C514        C515   1.520       .  S
C515        F519   1.385       .  S
C515        F520   1.381       .  S
C515        F521   1.382   1_655  S
C518        F522   1.383       .  S
C518        F523   1.380       .  S
C518        F524   1.384       .  S
C525        C526   1.404       .  A
C525        C530   1.410       .  A
C525        H532   1.083       .  S
C526        C527   1.417       .  A
C527        C528   1.405       .  A
C527        C534   1.514       .  S
C528        C529   1.402       .  A
C528        H533   1.084       .  S
C529        C530   1.417       .  A
C530        C531   1.518       .  S
C531        F535   1.384       .  S
C531        F536   1.382       .  S
C531        F537   1.383       .  S
C534        F538   1.382       .  S
C534        F539   1.382       .  S
C534        F540   1.384       .  S
C541        C542   1.404       .  A
C541        C546   1.408       .  A
C541        H548   1.084       .  S
C542        C543   1.418       .  A
C543        C544   1.401       .  A
C543        C550   1.519       .  S
C544        C545   1.406       .  A
C544        H549   1.083       .  S
C545        C546   1.421       .  A
C546        C547   1.515       .  S
C547        F551   1.384   1_554  S
C547        F552   1.383       .  S
C547        F553   1.383       .  S
C550        F554   1.383       .  S
C550        F555   1.382   1_554  S
C550        F556   1.384   1_554  S
C557        C558   1.410       .  A
C557        C562   1.409       .  A
C557        H564   1.083       .  S
C558        C559   1.426       .  A
C559        C560   1.407       .  A
C559        C566   1.526       .  S
C560        C561   1.402       .  A
C560        H565   1.084       .  S
C561        C562   1.415       .  A
C562        C563   1.520   1_565  S
C563        F567   1.385       .  S
C563        F568   1.383       .  S
C563        F569   1.380       .  S
C566        F570   1.383       .  S
C566        F571   1.381       .  S
C566        F572   1.385       .  S
C573        C574   1.411       .  A
C573        C578   1.404       .  A
C573        H580   1.082       .  S
C574        C575   1.420       .  A
C575        C576   1.407       .  A
C575        C582   1.514       .  S
C576        C577   1.402       .  A
C576        H581   1.084       .  S
C577        C578   1.411       .  A
C578        C579   1.519       .  S
C579        F583   1.384       .  S
C579        F584   1.384       .  S
C579        F585   1.382       .  S
C582        F586   1.383       .  S
C582        F587   1.383       .  S
C582        F588   1.383       .  S
C589        C590   1.407       .  A
C589        C594   1.409       .  A
C589        H596   1.084       .  S
C590        C591   1.423       .  A
C591        C592   1.405       .  A
C591        C598   1.520       .  S
C592        C593   1.399       .  A
C592        H597   1.084       .  S
C593        C594   1.417       .  A
C594        C595   1.516       .  S
C595        F599   1.383       .  S
C595        F600   1.381       .  S
C595        F601   1.383       .  S
C598        F602   1.383       .  S
C598        F603   1.378       .  S
C598        F604   1.385       .  S
C605        C606   1.409       .  A
C605        C610   1.401       .  A
C605        H612   1.075       .  S
C606        C607   1.426       .  A
C607        C608   1.410       .  A
C607        C614   1.511       .  S
C608        C609   1.403       .  A
C608        H613   1.084       .  S
C609        C610   1.416       .  A
C610        C611   1.520       .  S
C611        F615   1.384       .  S
C611        F616   1.383       .  S
C611        F617   1.382       .  S
C614        F618   1.383       .  S
C614        F619   1.380       .  S
C614        F620   1.384       .  S
C621        C622   1.404       .  A
C621        C626   1.407       .  A
C621        H628   1.081       .  S
C622        C623   1.424       .  A
C623        C624   1.409       .  A
C623        C630   1.513       .  S
C624        C625   1.401       .  A
C624        H629   1.084       .  S
C625        C626   1.423       .  A
C626        C627   1.519       .  S
C627        F631   1.385       .  S
C627        F632   1.381       .  S
C627        F633   1.380       .  S
C630        F634   1.383       .  S
C630        F635   1.381       .  S
C630        F636   1.385       .  S
