geometry optimzed in LAMMPS
_audit_creation_date              2020-11-30 
_audit_creation_method            'lammps2cif' 
_symmetry_space_group_name_H-M    'P1' 
_symmetry_Int_Tables_number       1 
_symmetry_cell_setting            triclinic 
loop_ 
_symmetry_equiv_pos_as_xyz 
  x,y,z 
_cell_length_a                    37.06930759808423 
_cell_length_b                    37.04266931969057 
_cell_length_c                    36.89591633593774 
_cell_angle_alpha                 90.19920987998107 
_cell_angle_beta                  89.60865208306187 
_cell_angle_gamma                 89.88445242582235 
loop_ 
_atom_site_label 
_atom_site_type_symbol 
_atom_site_fract_x 
_atom_site_fract_y 
_atom_site_fract_z 
_atom_site_charge 
C1          C  0.10823475  0.86429462  0.53209479     0.01290
C2          C  0.08934438  0.85590742  0.49950901     0.01290
C3          C  0.10664525  0.86540078  0.46623533     0.01290
C4          C  0.13345362  0.89295687  0.46611009     0.01290
C5          C  0.14219450  0.91054588  0.49903868     0.01290
C6          C  0.13539292  0.89177016  0.53183550     0.01290
C7          C  0.13856087  0.08662941  0.46567613     0.01290
C8          C  0.14707031  0.06870118  0.49863200     0.01290
C9          C  0.13864901  0.08636504  0.53173829     0.01290
C10         C  0.11265933  0.11461835  0.53235538     0.01290
C11         C  0.09714114  0.12629059  0.49942049     0.01290
C12         C  0.11472750  0.11684463  0.46655153     0.01290
C13         C  0.92165448  0.10191282  0.46778249     0.01290
C14         C  0.94115981  0.11008386  0.49967404     0.01290
C15         C  0.92515555  0.10213476  0.53410553     0.01290
C16         C  0.89811731  0.07451608  0.53622776     0.01290
C17         C  0.88940476  0.05571218  0.50356708     0.01290
C18         C  0.89562350  0.07347022  0.46954074     0.01290
C19         C  0.91377349  0.85973143  0.46605242     0.01290
C20         C  0.92919772  0.85113036  0.49988520     0.01290
C21         C  0.90499001  0.85200377  0.53045723     0.01290
C22         C  0.87762706  0.88021627  0.52953034     0.01290
C23         C  0.87100898  0.89906091  0.49688980     0.01290
C24         C  0.88335167  0.88272305  0.46481736     0.01290
C25         C  0.48001301  0.11702718  0.09836045     0.01290
C26         C  0.51340131  0.12660320  0.08258922     0.01290
C27         C  0.54495170  0.11833142  0.10243513     0.01290
C28         C  0.54404652  0.09012651  0.12877704     0.01290
C29         C  0.51190841  0.06958968  0.13104647     0.01290
C30         C  0.47906414  0.08673751  0.12170409     0.01290
C31         C  0.47937171  0.12028796  0.90358335     0.01290
C32         C  0.51315999  0.12630224  0.92151248     0.01290
C33         C  0.54388548  0.11796226  0.89954664     0.01290
C34         C  0.54262436  0.08419734  0.87972357     0.01290
C35         C  0.50846416  0.06608268  0.87564469     0.01290
C36         C  0.47717060  0.08860163  0.88003876     0.01290
C37         C  0.47975264  0.89095487  0.12596692     0.01290
C38         C  0.51214017  0.91067901  0.13193961     0.01290
C39         C  0.54502225  0.89222631  0.12383340     0.01290
C40         C  0.54464898  0.86038952  0.10073553     0.01290
C41         C  0.51230357  0.85520911  0.08034202     0.01290
C42         C  0.47987442  0.86298302  0.09921663     0.01290
C43         C  0.48013273  0.88882044  0.86973066     0.01290
C44         C  0.51332847  0.90653266  0.86304029     0.01290
C45         C  0.54504534  0.88909199  0.87508472     0.01290
C46         C  0.54273326  0.86406941  0.90421960     0.01290
C47         C  0.50871605  0.85617782  0.91997215     0.01290
C48         C  0.47752636  0.86471003  0.89956959     0.01290
C49         C  0.10410279  0.45697939  0.87784412     0.01290
C50         C  0.08894840  0.49025940  0.86655974     0.01290
C51         C  0.10959643  0.52187420  0.87302941     0.01290
C52         C  0.13673776  0.52170186  0.90030901     0.01290
C53         C  0.14195236  0.48985139  0.92068773     0.01290
C54         C  0.13173557  0.45711340  0.90439625     0.01290
C55         C  0.13739227  0.52254577  0.09667397     0.01290
C56         C  0.14728862  0.48992401  0.07901546     0.01290
C57         C  0.13721354  0.45687109  0.09586538     0.01290
C58         C  0.10959361  0.45717727  0.12304856     0.01290
C59         C  0.09015877  0.48964435  0.12910998     0.01290
C60         C  0.10852062  0.52244167  0.12222353     0.01290
C61         C  0.91578476  0.52103942  0.12251556     0.01290
C62         C  0.93189475  0.48827412  0.13380186     0.01290
C63         C  0.91298575  0.45597832  0.12552704     0.01290
C64         C  0.88874633  0.45565711  0.09553341     0.01290
C65         C  0.88360880  0.48799872  0.07566550     0.01290
C66         C  0.89054092  0.52078400  0.09384231     0.01290
C67         C  0.91174805  0.45670847  0.87744668     0.01290
C68         C  0.93122930  0.48933159  0.87215271     0.01290
C69         C  0.91215985  0.52191876  0.87595247     0.01290
C70         C  0.88139937  0.52311927  0.89875874     0.01290
C71         C  0.86973617  0.49108883  0.91626232     0.01290
C72         C  0.87743802  0.45798263  0.89701944     0.01290
N73         N  0.15757690  0.94684546  0.79492248    -0.07110
N74         N  0.12344746  0.93616678  0.79664551    -0.59230
N75         N  0.23541268  0.92362231  0.83350318    -0.06790
N76         N  0.24785270  0.89726736  0.85345589    -0.61360
N77         N  0.21597553  0.94626538  0.85313830    -0.06390
N78         N  0.21427986  0.93483269  0.88719329    -0.59210
N79         N  0.17686722  0.92374151  0.77574080    -0.06070
N80         N  0.15642898  0.89764500  0.76342922    -0.61710
C81         C  0.12326060  0.90563755  0.77621838     0.95070
C82         C  0.23492672  0.90444387  0.88679702     0.94840
N83         N  0.31348130  0.94814336  0.75647625    -0.07300
N84         N  0.34808951  0.94679793  0.76458715    -0.59810
N85         N  0.23463768  0.92534940  0.71557147    -0.05420
N86         N  0.21029893  0.91002359  0.69461853    -0.61060
N87         N  0.25334926  0.94941455  0.69733608    -0.07330
N88         N  0.24227847  0.95067007  0.66341884    -0.60080
N89         N  0.29537245  0.92381761  0.77487109    -0.05060
N90         N  0.31731415  0.90549485  0.79614499    -0.61150
Mn91       Mn  0.23590591  0.92307994  0.77468345     1.18440
C92         C  0.35012353  0.91980851  0.78897670     0.97150
C93         C  0.21543941  0.92604135  0.66225961     0.97810
N94         N  0.21567651  0.03302602  0.85311713    -0.07350
N95         N  0.21415710  0.04373947  0.88743014    -0.63650
N96         N  0.17707623  0.05621255  0.77513229    -0.06150
N97         N  0.15680518  0.08228426  0.76252583    -0.64330
N98         N  0.15771208  0.03347339  0.79451479    -0.06850
N99         N  0.12359620  0.04444973  0.79589581    -0.63920
N100        N  0.23468003  0.05603328  0.83378467    -0.05750
N101        N  0.24714710  0.08198599  0.85432119    -0.64610
Mn102      Mn  0.18560148  0.98995440  0.82509701     1.10660
C103        C  0.23456680  0.07409426  0.88759124     0.98370
C104        C  0.12359521  0.07472719  0.77521025     0.98450
N105        N  0.25576716  0.03229028  0.69727326    -0.06860
N106        N  0.24858021  0.03362527  0.66229958    -0.62230
N107        N  0.29501483  0.05580589  0.77645563    -0.06180
N108        N  0.31564342  0.07276942  0.80001538    -0.58960
N109        N  0.31376625  0.03145946  0.75841804    -0.07490
N110        N  0.34770465  0.03156692  0.76925707    -0.61800
N111        N  0.23649760  0.05627920  0.71515993    -0.06480
N112        N  0.21548974  0.07428815  0.69273748    -0.58990
Mn113      Mn  0.28542579  0.99022515  0.72616480     1.20190
Mn114      Mn  0.23588634  0.05709521  0.77482338     1.10090
Cl115      Cl  0.23558012  0.99009656  0.77531863    -0.86960
C116        C  0.22387409  0.06032031  0.65980686     0.95380
C117        C  0.34843200  0.05754119  0.79518626     0.95170
N118        N  0.05410807  0.13741267  0.79272255    -0.07110
N119        N  0.06480118  0.10325313  0.79448093    -0.59230
N120        N  0.07600271  0.21474823  0.83319156    -0.06790
N121        N  0.10126260  0.22738055  0.85439675    -0.61360
N122        N  0.05277884  0.19530916  0.85188215    -0.06390
N123        N  0.06259189  0.19375819  0.88638231    -0.59210
N124        N  0.07768645  0.15660822  0.77416761    -0.06070
N125        N  0.10413704  0.13600575  0.76238547    -0.61710
C126        C  0.09584351  0.10287810  0.77481912     0.95070
C127        C  0.09268554  0.21451504  0.88741094     0.94840
N128        N  0.05225826  0.29305095  0.75662175    -0.07300
N129        N  0.05204580  0.32741938  0.76633508    -0.59810
N130        N  0.07887015  0.21609843  0.71442240    -0.05420
N131        N  0.09850320  0.19571405  0.69241560    -0.61060
N132        N  0.05412639  0.23363389  0.69616650    -0.07330
N133        N  0.05616135  0.22527362  0.66139691    -0.60080
N134        N  0.07673810  0.27519126  0.77494874    -0.05060
N135        N  0.09390079  0.29708951  0.79728084    -0.61150
Mn136      Mn  0.07837227  0.21581184  0.77400183     1.18440
C137        C  0.07847734  0.32958431  0.79126316     0.97150
C138        C  0.08440751  0.20219439  0.65938645     0.97810
N139        N  0.96667853  0.19502911  0.85125680    -0.07350
N140        N  0.95565635  0.19252185  0.88544760    -0.63650
N141        N  0.94436290  0.15670745  0.77297419    -0.06150
N142        N  0.91813832  0.13639029  0.76076130    -0.64330
N143        N  0.96735588  0.13736868  0.79185986    -0.06850
N144        N  0.95645012  0.10330567  0.79337658    -0.63920
N145        N  0.94365600  0.21432676  0.83236728    -0.05750
N146        N  0.91713033  0.22574253  0.85322475    -0.64610
Mn147      Mn  0.01025532  0.16522967  0.82284092     1.10660
C148        C  0.92491029  0.21239560  0.88620891     0.98370
C149        C  0.92594271  0.10321515  0.77323400     0.98450
N150        N  0.97059691  0.23315372  0.69486991    -0.06860
N151        N  0.97106909  0.22332971  0.66034387    -0.62230
N152        N  0.94563587  0.27526590  0.77440636    -0.06180
N153        N  0.92941411  0.29721488  0.79777544    -0.58960
N154        N  0.96974779  0.29304516  0.75531858    -0.07490
N155        N  0.97015235  0.32740325  0.76495845    -0.61800
N156        N  0.94604577  0.21480291  0.71284190    -0.06480
N157        N  0.92965503  0.19184350  0.69091293    -0.58990
Mn158      Mn  0.01159936  0.26427809  0.72445830     1.20190
Mn159      Mn  0.94380806  0.21566293  0.77288609     1.10090
Cl160      Cl  0.01101298  0.21506004  0.77358627    -0.86960
C161        C  0.94498543  0.19792231  0.65809874     0.95380
C162        C  0.94465148  0.32973875  0.79115743     0.95170
N163        N  0.05414998  0.84279302  0.20295434    -0.07110
N164        N  0.06430260  0.87711059  0.20127919    -0.59230
N165        N  0.07873842  0.76499889  0.16415662    -0.06790
N166        N  0.10493301  0.75216629  0.14389034    -0.61360
N167        N  0.05580676  0.78377973  0.14467104    -0.06390
N168        N  0.06686034  0.78466737  0.11039354    -0.59210
N169        N  0.07737795  0.82404329  0.22211300    -0.06070
N170        N  0.10295453  0.84504546  0.23447469    -0.61710
C171        C  0.09459336  0.87798800  0.22171319     0.95070
C172        C  0.09733196  0.76421159  0.11053210     0.94840
N173        N  0.05578096  0.68722812  0.24078225    -0.07300
N174        N  0.05791011  0.65259786  0.23251465    -0.59810
N175        N  0.07774026  0.76597249  0.28198706    -0.05420
N176        N  0.09463644  0.78885087  0.30342081    -0.61060
N177        N  0.05354007  0.74744704  0.30023894    -0.07330
N178        N  0.05347136  0.75739920  0.33466922    -0.60080
N179        N  0.08011501  0.70563745  0.22266845    -0.05060
N180        N  0.09932567  0.68389923  0.20158206    -0.61150
Mn181      Mn  0.07944527  0.76501037  0.22288088     1.18440
C182        C  0.08562077  0.65084064  0.20860059     0.97150
C183        C  0.07948601  0.78290601  0.33615303     0.97810
N184        N  0.96923461  0.78302418  0.14439690    -0.07350
N185        N  0.95862502  0.78480133  0.11017241    -0.63650
N186        N  0.94465957  0.82179099  0.22226422    -0.06150
N187        N  0.91784653  0.84170964  0.23439171    -0.64330
N188        N  0.96742945  0.84139239  0.20314172    -0.06850
N189        N  0.95578160  0.87527430  0.20146537    -0.63920
N190        N  0.94636772  0.76356651  0.16351132    -0.05750
N191        N  0.92057528  0.75111241  0.14283190    -0.64610
Mn192      Mn  0.01167969  0.81386217  0.17268465     1.10660
C193        C  0.92846295  0.76413489  0.10971411     0.98370
C194        C  0.92501273  0.87493466  0.22168191     0.98450
N195        N  0.97052458  0.74470274  0.29996793    -0.06860
N196        N  0.96930881  0.75279293  0.33479449    -0.62230
N197        N  0.94716616  0.70362457  0.22192307    -0.06180
N198        N  0.92880939  0.68178873  0.20057668    -0.58960
N199        N  0.97220800  0.68570004  0.23941460    -0.07490
N200        N  0.97155247  0.65120659  0.23009732    -0.61800
N201        N  0.94599720  0.76301794  0.28220912    -0.06480
N202        N  0.92761418  0.78414774  0.30458319    -0.58990
Mn203      Mn  0.01302211  0.71500109  0.27123588     1.20190
Mn204      Mn  0.94508023  0.76282944  0.22272213     1.10090
Cl205      Cl  0.01228221  0.76426855  0.22227677    -0.86960
C206        C  0.94211962  0.77694750  0.33726531     0.95380
C207        C  0.94396173  0.64918588  0.20633696     0.95170
N208        N  0.31609601  0.74530726  0.03930568    -0.07110
N209        N  0.35100249  0.75190617  0.04107396    -0.59230
N210        N  0.23865501  0.70462104  0.06535769    -0.06790
N211        N  0.21778347  0.68313701  0.08478608    -0.61360
N212        N  0.25674148  0.68604219  0.04080195    -0.06390
N213        N  0.24872802  0.65134317  0.04339006    -0.59210
N214        N  0.29854137  0.76367088  0.06434608    -0.06070
N215        N  0.32125026  0.78318761  0.08373142    -0.61710
C216        C  0.35394175  0.77524975  0.06914219     0.95070
C217        C  0.22479542  0.64990214  0.07131264     0.94840
N218        N  0.16058350  0.78298896  0.04222038    -0.07300
N219        N  0.12625214  0.78406278  0.05242041    -0.59810
N220        N  0.23804539  0.82297670  0.06412929    -0.05420
N221        N  0.25016782  0.84413920  0.08985671    -0.61060
N222        N  0.21838708  0.84151276  0.04110859    -0.07330
N223        N  0.21625481  0.87578964  0.05144856    -0.60080
N224        N  0.17978321  0.76451260  0.06562741    -0.05060
N225        N  0.15898786  0.75208479  0.09162295    -0.61150
Mn226      Mn  0.23896117  0.76390917  0.06586636     1.18440
C227        C  0.12577669  0.76408284  0.08306516     0.97150
C228        C  0.23680547  0.87693107  0.08167731     0.97810
N229        N  0.25674365  0.68549713  0.95595251    -0.07350
N230        N  0.25015412  0.65054639  0.95424458    -0.63650
N231        N  0.29582429  0.76377846  0.93030469    -0.06150
N232        N  0.31656525  0.78556636  0.91113237    -0.64330
N233        N  0.31484284  0.74627862  0.95457783    -0.06850
N234        N  0.34915364  0.75576663  0.95215635    -0.63920
N235        N  0.23802058  0.70283064  0.93139221    -0.05750
N236        N  0.21832459  0.67991871  0.91239551    -0.64610
Mn237      Mn  0.28725106  0.71466391  0.99758919     1.10660
C238        C  0.22648874  0.64732974  0.92669853     0.98370
C239        C  0.34978427  0.77986941  0.92460020     0.98450
N240        N  0.21689561  0.84074566  0.95491288    -0.06860
N241        N  0.21522903  0.87507344  0.94494748    -0.62230
N242        N  0.17799579  0.76238998  0.93292161    -0.06180
N243        N  0.15703672  0.75008155  0.90723824    -0.58960
N244        N  0.15930206  0.78197437  0.95625057    -0.07490
N245        N  0.12507484  0.78389275  0.94616125    -0.61800
N246        N  0.23538640  0.82171270  0.93099629    -0.06480
N247        N  0.24726105  0.84261935  0.90488924    -0.58990
Mn248      Mn  0.18787346  0.81274893  0.99866690     1.20190
Mn249      Mn  0.23687345  0.76240283  0.93042322     1.10090
Cl250      Cl  0.23772351  0.76345534  0.99815264    -0.86960
C251        C  0.23489958  0.87573703  0.91388131     0.95380
C252        C  0.12417563  0.76326595  0.91575281     0.95170
N253        N  0.05297235  0.23458642  0.30391516    -0.07110
N254        N  0.05604127  0.22786113  0.33892658    -0.59230
N255        N  0.07464568  0.27443193  0.22395807    -0.06790
N256        N  0.09097464  0.29559557  0.20026913    -0.61360
N257        N  0.05033008  0.29265945  0.24260180    -0.06390
N258        N  0.04989160  0.32677514  0.23212765    -0.59210
N259        N  0.07728818  0.21632594  0.28534999    -0.06070
N260        N  0.09730145  0.19670391  0.30724595    -0.61710
C261        C  0.08428115  0.20473386  0.34061014     0.95070
C262        C  0.07540567  0.32815480  0.20573555     0.94840
N263        N  0.05331681  0.19447841  0.14789802    -0.07300
N264        N  0.06409998  0.19301668  0.11352377    -0.59810
N265        N  0.07741325  0.15615663  0.22568424    -0.05420
N266        N  0.10409416  0.13599191  0.23722288    -0.61060
N267        N  0.05443136  0.13664875  0.20687596    -0.07330
N268        N  0.06570746  0.10269137  0.20482562    -0.60080
N269        N  0.07609170  0.21390822  0.16693434    -0.05060
N270        N  0.10193865  0.22660164  0.14622434    -0.61150
Mn271      Mn  0.07726548  0.21529033  0.22581318     1.18440
C272        C  0.09425427  0.21382944  0.11306241     0.97150
C273        C  0.09649782  0.10278284  0.22446897     0.97810
N274        N  0.96726702  0.29115246  0.24487699    -0.07350
N275        N  0.96654366  0.32536629  0.23487808    -0.63650
N276        N  0.94493474  0.21307418  0.28802415    -0.06150
N277        N  0.92793962  0.19086463  0.31027788    -0.64330
N278        N  0.96900549  0.23205948  0.30582705    -0.06850
N279        N  0.96861135  0.22321613  0.34059812    -0.63920
N280        N  0.94339155  0.27242670  0.22660933    -0.05750
N281        N  0.92619019  0.29347371  0.20355233    -0.64610
Mn282      Mn  0.00979806  0.26377076  0.27563464     1.10660
C283        C  0.94071640  0.32644187  0.20922779     0.98370
C284        C  0.94239985  0.19786434  0.34315099     0.98450
N285        N  0.96775027  0.13507879  0.20777736    -0.06860
N286        N  0.95717999  0.10087641  0.20587067    -0.62230
N287        N  0.94317772  0.21179326  0.16858973    -0.06180
N288        N  0.91703648  0.22395616  0.14813155    -0.58960
N289        N  0.96660439  0.19319812  0.14904445    -0.07490
N290        N  0.95614168  0.19182838  0.11471611    -0.61800
N291        N  0.94472403  0.15397282  0.22752869    -0.06480
N292        N  0.91886785  0.13320234  0.23996195    -0.58990
Mn293      Mn  0.01054553  0.16381173  0.17685407     1.20190
Mn294      Mn  0.94301974  0.21302550  0.22803289     1.10090
Cl295      Cl  0.01014058  0.21374106  0.22659587    -0.86960
C296        C  0.92685367  0.10021710  0.22671715     0.95380
C297        C  0.92536833  0.21175096  0.11467766     0.95170
N298        N  0.25158193  0.94865281  0.29968854    -0.07110
N299        N  0.24061351  0.94992374  0.33381146    -0.59230
N300        N  0.29371104  0.92212350  0.22164122    -0.06790
N301        N  0.31523913  0.90381274  0.19956128    -0.61360
N302        N  0.31215609  0.94604522  0.24010153    -0.06390
N303        N  0.34668448  0.94440925  0.23125706    -0.59210
N304        N  0.23281044  0.92468337  0.28153580    -0.06070
N305        N  0.20851106  0.90933698  0.30275725    -0.61710
C306        C  0.21381400  0.92528167  0.33518087     0.95070
C307        C  0.34819085  0.91774372  0.20624617     0.94840
N308        N  0.21580296  0.94606169  0.14399871    -0.07300
N309        N  0.21514976  0.93533936  0.10963095    -0.59810
N310        N  0.17581085  0.92410920  0.22182436    -0.05420
N311        N  0.15520007  0.89822964  0.23431990    -0.61060
N312        N  0.15687373  0.94715323  0.20266044    -0.07330
N313        N  0.12271492  0.93650245  0.20107299    -0.60080
N314        N  0.23457324  0.92305085  0.16341595    -0.05060
N315        N  0.24763629  0.89708994  0.14299135    -0.61150
Mn316      Mn  0.23452580  0.92249862  0.22233483     1.18440
C317        C  0.23575514  0.90495477  0.10960799     0.97150
C318        C  0.12222678  0.90613774  0.22162554     0.97810
N319        N  0.31411381  0.02910364  0.23895924    -0.07350
N320        N  0.34863762  0.02913703  0.22986861    -0.63650
N321        N  0.23774903  0.05655818  0.28181591    -0.06150
N322        N  0.21783683  0.07596345  0.30448131    -0.64330
N323        N  0.25529643  0.03138208  0.29943186    -0.06850
N324        N  0.24756488  0.03285689  0.33433321    -0.63920
N325        N  0.29667731  0.05431767  0.22118774    -0.05750
N326        N  0.31898468  0.07224633  0.19981914    -0.64610
Mn327      Mn  0.28445089  0.98864771  0.27065720     1.10660
C328        C  0.35127395  0.05651117  0.20589736     0.98370
C329        C  0.22478463  0.06118780  0.33718042     0.98450
N330        N  0.15874334  0.03390678  0.20338236    -0.06860
N331        N  0.12459478  0.04467306  0.20284314    -0.62230
N332        N  0.23626570  0.05547204  0.16298642    -0.06180
N333        N  0.24856715  0.08134093  0.14216272    -0.58960
N334        N  0.21663896  0.03266553  0.14407234    -0.07490
N335        N  0.21465332  0.04339754  0.10987256    -0.61800
N336        N  0.17831160  0.05691383  0.22217424    -0.06480
N337        N  0.15803874  0.08304822  0.23519315    -0.58990
Mn338      Mn  0.18582718  0.98998953  0.17236812     1.20190
Mn339      Mn  0.23740553  0.05691888  0.22221096     1.10090
Cl340      Cl  0.23530185  0.98965791  0.22160217    -0.86960
C341        C  0.12470027  0.07514233  0.22336569     0.95380
C342        C  0.23530805  0.07356731  0.10919528     0.95170
N343        N  0.21446884  0.13669150  0.04160266    -0.07110
N344        N  0.21335627  0.10237868  0.05176927    -0.59230
N345        N  0.17601837  0.21425620  0.06642463    -0.06790
N346        N  0.15554722  0.22641835  0.09296362    -0.61360
N347        N  0.15659259  0.19550211  0.04325296    -0.06390
N348        N  0.12249093  0.19407032  0.05422461    -0.59210
N349        N  0.23412361  0.15554714  0.06438333    -0.06070
N350        N  0.24731167  0.13469387  0.08969290    -0.61710
C351        C  0.23458173  0.10169310  0.08158673     0.95070
C352        C  0.12232284  0.21404351  0.08504720     0.94840
N353        N  0.25383884  0.29152793  0.04085966    -0.07300
N354        N  0.24647530  0.32632250  0.04277674    -0.59810
N355        N  0.29487315  0.21258291  0.06243980    -0.05420
N356        N  0.31693551  0.19012241  0.07913878    -0.61060
N357        N  0.31243986  0.23095022  0.03754225    -0.07330
N358        N  0.34690466  0.22159625  0.03702832    -0.60080
N359        N  0.23623268  0.27382578  0.06613101    -0.05060
N360        N  0.21665088  0.29635078  0.08602983    -0.61150
Mn361      Mn  0.23542868  0.21434284  0.06598635     1.18440
C362        C  0.22389203  0.32906834  0.07150945     0.97150
C363        C  0.34930646  0.19624015  0.06321778     0.97810
N364        N  0.15477721  0.19550492  0.95647002    -0.07350
N365        N  0.12060453  0.19389356  0.94598095    -0.63650
N366        N  0.23205513  0.15644470  0.93180448    -0.06150
N367        N  0.24536374  0.13566625  0.90620337    -0.64330
N368        N  0.21343712  0.13727842  0.95533272    -0.06850
N369        N  0.21311541  0.10283198  0.94547681    -0.63920
N370        N  0.17369755  0.21484329  0.93335379    -0.05750
N371        N  0.15306864  0.22744791  0.90763744    -0.64610
Mn372      Mn  0.18363989  0.16515201  0.99917838     1.10660
C373        C  0.12011044  0.21461582  0.91567578     0.98370
C374        C  0.23373587  0.10242308  0.91499210     0.98450
N375        N  0.30943478  0.23330242  0.95388347    -0.06860
N376        N  0.34397837  0.22567533  0.95152726    -0.62230
N377        N  0.23148923  0.27444647  0.93307271    -0.06180
N378        N  0.20866372  0.29615290  0.91656928    -0.58960
N379        N  0.25021893  0.29233701  0.95731027    -0.07490
N380        N  0.24074074  0.32672716  0.95760508    -0.61800
N381        N  0.29134160  0.21499250  0.92959526    -0.06480
N382        N  0.31332463  0.19427110  0.91016718    -0.58990
Mn383      Mn  0.28255428  0.26312412  0.99739008     1.20190
Mn384      Mn  0.23232362  0.21530436  0.93090248     1.10090
Cl385      Cl  0.23316958  0.21436423  0.99845584    -0.86960
C386        C  0.34621041  0.20151578  0.92408120     0.95380
C387        C  0.21501317  0.32863181  0.93190075     0.95170
N388        N  0.76885884  0.02802878  0.30769610    -0.07110
N389        N  0.77718257  0.02760279  0.34242379    -0.59230
N390        N  0.72700106  0.05672405  0.23122630    -0.06790
N391        N  0.70543078  0.07573888  0.21025234    -0.61360
N392        N  0.70854468  0.03208611  0.24887581    -0.06390
N393        N  0.67399365  0.03395097  0.24018137    -0.59210
N394        N  0.78702013  0.05332764  0.29068189    -0.06070
N395        N  0.80788986  0.07090506  0.31370475    -0.61710
C396        C  0.80096250  0.05496162  0.34600126     0.95070
C397        C  0.67234144  0.06145227  0.21610813     0.94840
N398        N  0.80490089  0.03396035  0.15085044    -0.07300
N399        N  0.80617916  0.04496741  0.11670760    -0.59810
N400        N  0.84539247  0.05413315  0.22886305    -0.05420
N401        N  0.86638329  0.07976140  0.24123417    -0.61060
N402        N  0.86387133  0.03148361  0.20825382    -0.07330
N403        N  0.89799250  0.04217052  0.20573536    -0.60080
N404        N  0.78689110  0.05738436  0.17100804    -0.05060
N405        N  0.77516764  0.08419265  0.15102345    -0.61150
Mn406      Mn  0.78646406  0.05641539  0.23068670     1.18440
C407        C  0.78696477  0.07612393  0.11730721     0.97150
C408        C  0.89905928  0.07210736  0.22706880     0.97810
N409        N  0.70746385  0.94904836  0.24514575    -0.07350
N410        N  0.67308781  0.95052175  0.23628826    -0.63650
N411        N  0.78454361  0.92022080  0.28365238    -0.06150
N412        N  0.80565397  0.89998156  0.30382683    -0.64330
N413        N  0.76755808  0.94441456  0.30354708    -0.06850
N414        N  0.77684421  0.94112532  0.33788448    -0.63920
N415        N  0.72461746  0.92522719  0.22493628    -0.05750
N416        N  0.70228726  0.91021042  0.20163125    -0.64610
Mn417      Mn  0.73705385  0.98832196  0.27760092     1.10660
C418        C  0.67022287  0.92592972  0.20941373     0.98370
C419        C  0.80013588  0.91294839  0.33756805     0.98450
N420        N  0.86237572  0.94459655  0.20504141    -0.06860
N421        N  0.89648039  0.93375509  0.20296074    -0.62230
N422        N  0.78385470  0.92429376  0.16603228    -0.06180
N423        N  0.77191818  0.89808274  0.14543884    -0.58960
N424        N  0.80368720  0.94701285  0.14719936    -0.07490
N425        N  0.80620511  0.93571420  0.11304716    -0.61800
N426        N  0.84293844  0.92091714  0.22313785    -0.06480
N427        N  0.86328161  0.89415176  0.23425106    -0.58990
Mn428      Mn  0.83470503  0.98934810  0.17680528     1.20190
Mn429      Mn  0.78372211  0.92178871  0.22465334     1.10090
Cl430      Cl  0.78566138  0.98902446  0.22737751    -0.86960
C431        C  0.89653623  0.90243353  0.22191029     0.95380
C432        C  0.78558685  0.90537090  0.11250926     0.95170
N433        N  0.70875624  0.23306173  0.04281540    -0.07110
N434        N  0.67428208  0.22449065  0.04401716    -0.59230
N435        N  0.78612774  0.27497038  0.06573954    -0.06790
N436        N  0.80713579  0.29757900  0.08352458    -0.61360
N437        N  0.76810265  0.29208536  0.04050851    -0.06390
N438        N  0.77663810  0.32666223  0.04038823    -0.59210
N439        N  0.72668066  0.21576532  0.06798439    -0.06070
N440        N  0.70470600  0.19513593  0.08706675    -0.61710
C441        C  0.67216307  0.20132170  0.07206039     0.95070
C442        C  0.80057102  0.32973329  0.06767843     0.94840
N443        N  0.86383632  0.19475320  0.04427708    -0.07300
N444        N  0.89769614  0.19215365  0.05555000    -0.59810
N445        N  0.78649958  0.15674865  0.06934803    -0.05420
N446        N  0.77452317  0.13705794  0.09636695    -0.61060
N447        N  0.80522682  0.13683458  0.04626980    -0.07330
N448        N  0.80675147  0.10299414  0.05787162    -0.60080
N449        N  0.84484271  0.21462697  0.06716993    -0.05060
N450        N  0.86523587  0.22641981  0.09359356    -0.61150
Mn451      Mn  0.78587472  0.21575469  0.06852870     1.18440
C452        C  0.89807789  0.21266566  0.08612910     0.97150
C453        C  0.78690330  0.10366393  0.08894264     0.97810
N454        N  0.76700698  0.28915802  0.95696327    -0.07350
N455        N  0.77421033  0.32378799  0.95389772    -0.63650
N456        N  0.72543154  0.21167681  0.93492856    -0.06150
N457        N  0.70291566  0.19270042  0.91495226    -0.64330
N458        N  0.70765379  0.23067949  0.95924371    -0.06850
N459        N  0.67262449  0.22505705  0.95633997    -0.63920
N460        N  0.78502332  0.27051777  0.93257037    -0.05750
N461        N  0.80498707  0.29211584  0.91237669    -0.64610
Mn462      Mn  0.73681483  0.26230691  0.99998912     1.10660
C463        C  0.79782429  0.32538970  0.92583724     0.98370
C464        C  0.66994406  0.20144063  0.92840655     0.98450
N465        N  0.80497643  0.13421815  0.95887041    -0.06860
N466        N  0.80727060  0.10005449  0.94800025    -0.62230
N467        N  0.84347109  0.21088631  0.93329789    -0.06180
N468        N  0.86350669  0.22312390  0.90664374    -0.58960
N469        N  0.86314087  0.19271887  0.95660205    -0.07490
N470        N  0.89726319  0.19166825  0.94537490    -0.61800
N471        N  0.78523929  0.15282820  0.93598919    -0.06480
N472        N  0.77305309  0.13196296  0.91012125    -0.58990
Mn473      Mn  0.83542282  0.16354614  0.00149658     1.20190
Mn474      Mn  0.78466556  0.21147503  0.93335649     1.10090
Cl475      Cl  0.78582216  0.21314590  0.00086540    -0.86960
C476        C  0.78656091  0.09920398  0.91776652     0.95380
C477        C  0.89689296  0.21137878  0.91436147     0.95170
N478        N  0.05403842  0.74660320  0.69797902    -0.07110
N479        N  0.05407706  0.75564699  0.66342625    -0.59230
N480        N  0.07958159  0.70609584  0.77587812    -0.06790
N481        N  0.09702446  0.68495798  0.79855443    -0.61360
N482        N  0.05574705  0.68749436  0.75750147    -0.06390
N483        N  0.05661925  0.65323260  0.76699654    -0.59210
N484        N  0.07823407  0.76534194  0.71577023    -0.06070
N485        N  0.09535748  0.78755079  0.69372853    -0.61710
C486        C  0.08028776  0.78078620  0.66122430     0.95070
C487        C  0.08253863  0.65210824  0.79248081     0.94840
N488        N  0.05567259  0.78424134  0.85380161    -0.07300
N489        N  0.06604479  0.78483735  0.88816700    -0.59810
N490        N  0.07783951  0.82395283  0.77577219    -0.05420
N491        N  0.10357536  0.84472841  0.76317175    -0.61060
N492        N  0.05472632  0.84282092  0.79540440    -0.07330
N493        N  0.06510995  0.87707181  0.79708805    -0.60080
N494        N  0.07890398  0.76563820  0.83408009    -0.05060
N495        N  0.10468930  0.75259146  0.85431340    -0.61150
Mn496      Mn  0.07969561  0.76510884  0.77509760     1.18440
C497        C  0.09646171  0.76432920  0.88787230     0.97150
C498        C  0.09542653  0.87771247  0.77622324     0.97810
N499        N  0.97280425  0.68536340  0.75819013    -0.07350
N500        N  0.97216284  0.65064096  0.76612018    -0.63650
N501        N  0.94650636  0.76190434  0.71727367    -0.06150
N502        N  0.92616469  0.78081759  0.69522300    -0.64330
N503        N  0.97125015  0.74415156  0.69892247    -0.06850
N504        N  0.96832587  0.75063129  0.66394980    -0.63920
N505        N  0.94804086  0.70290734  0.77685414    -0.05750
N506        N  0.93002811  0.68050479  0.79800969    -0.64610
Mn507      Mn  0.01360943  0.71481718  0.72699982     1.10660
C508        C  0.94502364  0.64800395  0.79055903     0.98370
C509        C  0.93985260  0.77342356  0.66198297     0.98450
N510        N  0.96825792  0.84118806  0.79582708    -0.06860
N511        N  0.95774915  0.87545404  0.79658687    -0.62230
N512        N  0.94680330  0.76311630  0.83528601    -0.06180
N513        N  0.92071935  0.75062426  0.85577140    -0.58960
N514        N  0.96918407  0.78295761  0.85440114    -0.07490
N515        N  0.95784418  0.78494951  0.88853054    -0.61800
N516        N  0.94528806  0.82160694  0.77708619    -0.06480
N517        N  0.91935152  0.84202165  0.76430857    -0.58990
Mn518      Mn  0.01192927  0.81398026  0.82605961     1.20190
Mn519      Mn  0.94563545  0.76226740  0.77646780     1.10090
Cl520      Cl  0.01264907  0.76436846  0.77635567    -0.86960
C521        C  0.92740998  0.87545871  0.77623628     0.95380
C522        C  0.92780526  0.76403934  0.88881609     0.95170
N523        N  0.86430565  0.03376422  0.79272080    -0.07110
N524        N  0.89836084  0.04465678  0.79341437    -0.59230
N525        N  0.78730855  0.05511053  0.83473808    -0.06790
N526        N  0.77416753  0.08014275  0.85629665    -0.61360
N527        N  0.80738638  0.03229844  0.85305752    -0.06390
N528        N  0.80881352  0.04214936  0.88765083    -0.59210
N529        N  0.84442940  0.05703236  0.77462648    -0.06070
N530        N  0.86446931  0.08345961  0.76217296    -0.61710
C531        C  0.89794661  0.07545622  0.77366176     0.95070
C532        C  0.78735835  0.07183835  0.88913433     0.94840
N533        N  0.70836459  0.02956767  0.75918837    -0.07300
N534        N  0.67420965  0.02797418  0.76925092    -0.59810
N535        N  0.78433585  0.05719650  0.71536116    -0.05420
N536        N  0.80493137  0.07595613  0.69278198    -0.61060
N537        N  0.76682914  0.03201272  0.69758722    -0.07330
N538        N  0.77533001  0.03302716  0.66275074    -0.60080
N539        N  0.72569795  0.05375668  0.77843643    -0.05060
N540        N  0.70359432  0.06885952  0.80245307    -0.61150
Mn541      Mn  0.78519898  0.05698046  0.77556110     1.18440
C542        C  0.67149736  0.05273480  0.79600425     0.97150
C543        C  0.79850942  0.06110443  0.65980977     0.97810
N544        N  0.80865810  0.94636093  0.85240517    -0.07350
N545        N  0.80967988  0.93650427  0.88694047    -0.63650
N546        N  0.84692573  0.92343938  0.77361400    -0.06150
N547        N  0.86716087  0.89662926  0.76202826    -0.64330
N548        N  0.86613040  0.94657142  0.79255622    -0.06850
N549        N  0.89999921  0.93508461  0.79479653    -0.63920
N550        N  0.78958935  0.92313345  0.83349377    -0.05750
N551        N  0.77672109  0.89773059  0.85453865    -0.64610
Mn552      Mn  0.83784696  0.98981373  0.82363373     1.10660
C553        C  0.78902628  0.90631250  0.88770740     0.98370
C554        C  0.90014218  0.90410887  0.77498251     0.98450
N555        N  0.76848615  0.94837962  0.69744275    -0.06860
N556        N  0.77619029  0.94747029  0.66248847    -0.62230
N557        N  0.72891604  0.92268043  0.77622292    -0.06180
N558        N  0.70784949  0.90432427  0.79850782    -0.58960
N559        N  0.71020800  0.94712582  0.75873232    -0.07490
N560        N  0.67599449  0.94607108  0.76891601    -0.61800
N561        N  0.78744627  0.92410138  0.71491394    -0.06480
N562        N  0.80871716  0.90628569  0.69229104    -0.58990
Mn563      Mn  0.73749399  0.98931381  0.72703167     1.20190
Mn564      Mn  0.78803978  0.92235974  0.77428611     1.10090
Cl565      Cl  0.78764229  0.98967655  0.77514348    -0.86960
C566        C  0.80113449  0.92099277  0.65978650     0.95380
C567        C  0.67492815  0.91899702  0.79334825     0.95170
N568        N  0.80627835  0.84214924  0.04408886    -0.07110
N569        N  0.80694392  0.87643752  0.05449817    -0.59230
N570        N  0.84669176  0.76447619  0.06494349    -0.06790
N571        N  0.86762514  0.75141356  0.09021529    -0.61360
N572        N  0.86533448  0.78437035  0.04208481    -0.06390
N573        N  0.89960385  0.78580521  0.05218750    -0.59210
N574        N  0.78780221  0.82257881  0.06745065    -0.06070
N575        N  0.77509298  0.84313041  0.09367717    -0.61710
C576        C  0.78681833  0.87656859  0.08526434     0.95070
C577        C  0.90048238  0.76449538  0.08203483     0.94840
N578        N  0.77188499  0.68571205  0.03883227    -0.07300
N579        N  0.78127684  0.65124540  0.03896057    -0.59810
N580        N  0.72892326  0.76193837  0.06694582    -0.05420
N581        N  0.70680534  0.78152219  0.08709116    -0.61060
N582        N  0.71083751  0.74391998  0.04239376    -0.07330
N583        N  0.67599458  0.75105224  0.04530782    -0.60080
N584        N  0.78984390  0.70360228  0.06368750    -0.05060
N585        N  0.81198073  0.68177579  0.08104308    -0.61150
Mn586      Mn  0.78802613  0.76301824  0.06684767     1.18440
C587        C  0.80603291  0.64918943  0.06567621     0.97150
C588        C  0.67376258  0.77441843  0.07357049     0.97810
N589        N  0.86388880  0.78588912  0.95583713    -0.07350
N590        N  0.89839968  0.78580505  0.94623553    -0.63650
N591        N  0.78580243  0.82587414  0.93489878    -0.06150
N592        N  0.77386269  0.84662907  0.90891348    -0.64330
N593        N  0.80576223  0.84444720  0.95763967    -0.06850
N594        N  0.80837561  0.87845747  0.94666785    -0.63920
N595        N  0.84460587  0.76783853  0.93207841    -0.05750
N596        N  0.86546147  0.75449926  0.90648532    -0.64610
Mn597      Mn  0.83638724  0.81528172  0.99992589     1.10660
C598        C  0.89880799  0.76553863  0.91561207     0.98370
C599        C  0.78769393  0.87928385  0.91643974     0.98450
N600        N  0.70904607  0.74712959  0.95912259    -0.06860
N601        N  0.67430986  0.75513292  0.95979147    -0.62230
N602        N  0.78643376  0.70825912  0.93007118    -0.06180
N603        N  0.80705280  0.68772984  0.90919092    -0.58960
N604        N  0.76947824  0.68870199  0.95438089    -0.07490
N605        N  0.77807901  0.65428889  0.95045801    -0.61800
N606        N  0.72609553  0.76725011  0.93527939    -0.06480
N607        N  0.70334606  0.78961276  0.91942832    -0.58990
Mn608      Mn  0.73929102  0.71504397  0.99866985     1.20190
Mn609      Mn  0.78545386  0.76724591  0.93207750     1.10090
Cl610      Cl  0.78746041  0.76531598  0.99943066    -0.86960
C611        C  0.67113175  0.78134537  0.93463996     0.95380
C612        C  0.80107163  0.65412289  0.92181015     0.95170
C613        C  0.94529341  0.57995959  0.86665126    -0.21300
C614        C  0.92223712  0.55327767  0.85292515    -0.07860
C615        C  0.90794873  0.55727520  0.81763170     0.13000
C616        C  0.91599335  0.58840086  0.79764202    -0.21350
C617        C  0.93800948  0.61540747  0.81199108    -0.07870
C618        C  0.95341156  0.61093717  0.84651269     0.12990
C619        C  0.97873886  0.63871583  0.86184684    -0.24700
H620        H  0.95661974  0.57704414  0.89335086     0.14280
H621        H  0.90472694  0.59176228  0.77081253     0.14310
C622        C  0.88405838  0.52941405  0.80017903    -0.24650
H623        H  0.98919663  0.63065057  0.88878261     0.04520
H624        H  0.96455851  0.66498074  0.86495665     0.07750
H625        H  0.00205463  0.64203905  0.84313802     0.07750
H626        H  0.85785655  0.54194414  0.79300551     0.07730
H627        H  0.87849764  0.50597550  0.81784289     0.07730
H628        H  0.89720188  0.51920573  0.77502162     0.04510
C629        C  0.87668205  0.58609427  0.92146442    -0.21300
C630        C  0.86093625  0.55735900  0.90248764    -0.07860
C631        C  0.82715171  0.56263973  0.88538794     0.13000
C632        C  0.80801434  0.59471295  0.89188575    -0.21350
C633        C  0.82335275  0.62276111  0.91189591    -0.07870
C634        C  0.85897480  0.61942420  0.92462233     0.12990
C635        C  0.87840277  0.65120610  0.94079087    -0.24700
H636        H  0.90316160  0.58262275  0.93320838     0.14280
H637        H  0.78100927  0.59787187  0.88121900     0.14310
C638        C  0.80969991  0.53461771  0.86160598    -0.24650
H639        H  0.90530419  0.64352761  0.95141794     0.04520
H640        H  0.86212786  0.66309722  0.96305892     0.07750
H641        H  0.88235833  0.67211006  0.91964161     0.07750
H642        H  0.78333434  0.52661591  0.87351876     0.07730
H643        H  0.82634998  0.51001874  0.85802561     0.07730
H644        H  0.80483116  0.54624863  0.83439286     0.04510
C645        C  0.94172776  0.36096838  0.85102760    -0.21300
C646        C  0.93824066  0.36262750  0.81316737    -0.07860
C647        C  0.92913823  0.39572105  0.79684014     0.13000
C648        C  0.92198593  0.42586926  0.81878942    -0.21350
C649        C  0.92499940  0.42446274  0.85677779    -0.07870
C650        C  0.93585614  0.39159874  0.87303299     0.12990
C651        C  0.94003141  0.38749176  0.91328783    -0.24700
H652        H  0.94922454  0.33561498  0.86352874     0.14280
H653        H  0.91285690  0.45063460  0.80626623     0.14310
C654        C  0.92532088  0.39899189  0.75635162    -0.24650
H655        H  0.96746882  0.37725975  0.91940844     0.04520
H656        H  0.91981986  0.36793835  0.92368041     0.07750
H657        H  0.93645433  0.41329785  0.92781549     0.07750
H658        H  0.90487087  0.37948396  0.74650923     0.07730
H659        H  0.95161354  0.39339038  0.74290203     0.07730
H660        H  0.91663867  0.42652154  0.74829118     0.04510
C661        C  0.85375073  0.39595264  0.87547548    -0.21300
C662        C  0.85102442  0.42590417  0.89916147    -0.07860
C663        C  0.82111363  0.42422636  0.92343471     0.13000
C664        C  0.80685263  0.39081445  0.93342711    -0.21350
C665        C  0.81560654  0.35932452  0.91431437    -0.07870
C666        C  0.83810028  0.36234729  0.88343248     0.12990
C667        C  0.84547731  0.33099225  0.85825346    -0.24700
H668        H  0.86633702  0.39859053  0.84948044     0.14280
H669        H  0.78588853  0.39019882  0.95406822     0.14310
C670        C  0.79634947  0.45534010  0.93057919    -0.24650
H671        H  0.86268222  0.33889615  0.83484739     0.04520
H672        H  0.81972051  0.32047216  0.84731401     0.07750
H673        H  0.85999600  0.30934717  0.87295784     0.07750
H674        H  0.76845169  0.44808506  0.92246792     0.07730
H675        H  0.80320659  0.47857669  0.91350640     0.07730
H676        H  0.79562054  0.46132487  0.95994935     0.04510
C677        C  0.90031591  0.56334653  0.17222109    -0.21300
C678        C  0.92276644  0.55485050  0.14256718    -0.07860
C679        C  0.95074882  0.57857243  0.13267233     0.13000
C680        C  0.95675736  0.60940407  0.15386395    -0.21350
C681        C  0.93558833  0.61695147  0.18457349    -0.07870
C682        C  0.90646761  0.59422460  0.19339907     0.12990
C683        C  0.88214648  0.60248828  0.22519094    -0.24700
H684        H  0.87843244  0.54530184  0.17926750     0.14280
H685        H  0.97768383  0.62796316  0.14603733     0.14310
C686        C  0.97486900  0.57177840  0.10038415    -0.24650
H687        H  0.86064154  0.58187560  0.22834418     0.04520
H688        H  0.86903683  0.62915735  0.22127504     0.07750
H689        H  0.89819611  0.60313477  0.25047955     0.07750
H690        H  0.96682303  0.54784157  0.08427237     0.07730
H691        H  0.00253947  0.56705178  0.11002247     0.07730
H692        H  0.97461952  0.59561294  0.08222475     0.04510
C693        C  0.81202923  0.58722284  0.09000382    -0.21300
C694        C  0.82810235  0.61680786  0.07292447    -0.07860
C695        C  0.86484379  0.61494192  0.06257494     0.13000
C696        C  0.88428367  0.58285198  0.06808105    -0.21350
C697        C  0.86846876  0.55344211  0.08582648    -0.07870
C698        C  0.83204131  0.55592678  0.09751734     0.12990
C699        C  0.81427559  0.52572198  0.11819056    -0.24700
H700        H  0.78394294  0.58895979  0.09821416     0.14280
H701        H  0.91205227  0.58091472  0.05908623     0.14310
C702        C  0.88358300  0.64687209  0.04593462    -0.24650
H703        H  0.78595713  0.53236754  0.12566828     0.04520
H704        H  0.82928332  0.52063993  0.14355699     0.07750
H705        H  0.81392707  0.50076516  0.10150819     0.07750
H706        H  0.88454256  0.66935808  0.06586019     0.07730
H707        H  0.86851023  0.65593827  0.02191163     0.07730
H708        H  0.91166721  0.64031908  0.03748338     0.04510
C709        C  0.93081075  0.39089445  0.12967519    -0.21300
C710        C  0.92001628  0.42280298  0.14745244    -0.07860
C711        C  0.91564899  0.42232989  0.18575851     0.13000
C712        C  0.92330296  0.39065671  0.20497435    -0.21350
C713        C  0.93304683  0.35873786  0.18710042    -0.07870
C714        C  0.93667872  0.35871350  0.14891997     0.12990
C715        C  0.94775307  0.32514901  0.12848408    -0.24700
H716        H  0.93460389  0.39116490  0.10053184     0.14280
H717        H  0.92041727  0.39055311  0.23425309     0.14310
C718        C  0.90126274  0.45378784  0.20754340    -0.24650
H719        H  0.92702781  0.30386882  0.13210127     0.04520
H720        H  0.97407793  0.31523178  0.13866732     0.07750
H721        H  0.95062498  0.33028891  0.09896197     0.07750
H722        H  0.87674456  0.44521841  0.22265203     0.07730
H723        H  0.89338665  0.47720948  0.19090826     0.07730
H724        H  0.92183218  0.46248873  0.22744655     0.04510
C725        C  0.81779118  0.38156671  0.10625607    -0.21300
C726        C  0.82251441  0.36212033  0.07405598    -0.07860
C727        C  0.84863738  0.37333705  0.04859413     0.13000
C728        C  0.86976660  0.40371616  0.05613222    -0.21350
C729        C  0.86511539  0.42376708  0.08823730    -0.07870
C730        C  0.83812425  0.41268759  0.11336853     0.12990
C731        C  0.82927843  0.43321389  0.14761198    -0.24700
H732        H  0.79754418  0.37284411  0.12567744     0.14280
H733        H  0.89026578  0.41108363  0.03685643     0.14310
C734        C  0.85495882  0.35270037  0.01382962    -0.24650
H735        H  0.80035407  0.44105655  0.14755096     0.04520
H736        H  0.84513204  0.45822528  0.15062344     0.07750
H737        H  0.83436545  0.41576986  0.17145375     0.07750
H738        H  0.82997486  0.35264635  0.99754798     0.07730
H739        H  0.86273076  0.32443601  0.02002264     0.07730
H740        H  0.87672634  0.36490731  0.99706965     0.04510
C741        C  0.89971875  0.47450222  0.97385230    -0.21300
C742        C  0.86964998  0.49077443  0.95766917    -0.07860
C743        C  0.84436054  0.50816862  0.98167041     0.13000
C744        C  0.84800634  0.50440065  0.01959865    -0.21350
C745        C  0.87820873  0.48789599  0.03515323    -0.07870
C746        C  0.90563855  0.47528457  0.01140643     0.12990
C747        C  0.94236483  0.46473012  0.02512052    -0.24700
H748        H  0.92010961  0.46283809  0.95660649     0.14280
H749        H  0.82725445  0.51543817  0.03712749     0.14310
C750        C  0.81290120  0.53085820  0.96990531    -0.24650
H751        H  0.96106172  0.45699249  0.00278022     0.04520
H752        H  0.94053309  0.44135059  0.04351650     0.07750
H753        H  0.95439860  0.48803364  0.03963149     0.07750
H754        H  0.78773895  0.52133115  0.98326538     0.07730
H755        H  0.80821079  0.52960420  0.94081382     0.07730
H756        H  0.81744972  0.55940254  0.97794299     0.04510
C757        C  0.07645451  0.58025841  0.13528879    -0.21300
C758        C  0.10210690  0.55461604  0.14567570    -0.07860
C759        C  0.12386897  0.56177983  0.17636652     0.13000
C760        C  0.11762946  0.59309967  0.19701070    -0.21350
C761        C  0.09257349  0.61890140  0.18584318    -0.07870
C762        C  0.07307803  0.61329646  0.15370082     0.12990
C763        C  0.05038345  0.64303061  0.13796089    -0.24700
H764        H  0.06066507  0.57528118  0.11141588     0.14280
H765        H  0.13319910  0.59793307  0.22131726     0.14310
C766        C  0.15460577  0.53776577  0.18756457    -0.24650
H767        H  0.03587057  0.63399913  0.11331235     0.04520
H768        H  0.06805472  0.66598576  0.13030978     0.07750
H769        H  0.03056234  0.65278999  0.15838854     0.07750
H770        H  0.17999100  0.55362680  0.18768030     0.07730
H771        H  0.15883603  0.51463310  0.16897635     0.07730
H772        H  0.14951192  0.52737926  0.21531174     0.04510
C773        C  0.16600642  0.61841263  0.07051798    -0.21300
C774        C  0.20257780  0.61786342  0.07988517    -0.07860
C775        C  0.21734329  0.58641126  0.09524123     0.13000
C776        C  0.19521483  0.55604345  0.10049749    -0.21350
C777        C  0.15895022  0.55588906  0.08955068    -0.07870
C778        C  0.14451255  0.58732507  0.07324598     0.12990
C779        C  0.10774611  0.58856880  0.05608338    -0.24700
H780        H  0.15482084  0.64251820  0.05828211     0.14280
H781        H  0.20630126  0.53212909  0.11314192     0.14310
C782        C  0.25615135  0.58524736  0.10686904    -0.24650
H783        H  0.09178476  0.61110721  0.06795917     0.04520
H784        H  0.09259611  0.56317074  0.05949576     0.07750
H785        H  0.11031096  0.59346536  0.02655960     0.07750
H786        H  0.26106432  0.60667531  0.12736247     0.07730
H787        H  0.27407783  0.58968384  0.08308936     0.07730
H788        H  0.26326040  0.55881642  0.11905500     0.04510
C789        C  0.09161659  0.39258353  0.20186494    -0.21300
C790        C  0.08319758  0.36057866  0.18373824    -0.07860
C791        C  0.08257897  0.36020656  0.14538207     0.13000
C792        C  0.09010424  0.39215165  0.12622624    -0.21350
C793        C  0.09974827  0.42410868  0.14433634    -0.07870
C794        C  0.10099151  0.42392532  0.18278935     0.12990
C795        C  0.11476933  0.45566382  0.20406617    -0.24700
H796        H  0.09245210  0.39255790  0.23123738     0.14280
H797        H  0.08888193  0.39203444  0.09694071     0.14310
C798        C  0.07327218  0.32647122  0.12455342    -0.24650
H799        H  0.11493114  0.45031148  0.23366502     0.04520
H800        H  0.09765989  0.47973395  0.19973819     0.07750
H801        H  0.14294793  0.46113442  0.19559171     0.07750
H802        H  0.04633132  0.31652130  0.13319099     0.07730
H803        H  0.09384786  0.30529942  0.12950611     0.07730
H804        H  0.07253512  0.33141734  0.09488761     0.04510
C805        C  0.18294137  0.41245983  0.11551113    -0.21300
C806        C  0.15853075  0.42342440  0.08864564    -0.07860
C807        C  0.15523868  0.40215191  0.05674603     0.13000
C808        C  0.17794185  0.37231774  0.05175437    -0.21350
C809        C  0.20201033  0.36149013  0.07861393    -0.07870
C810        C  0.20425970  0.38132082  0.11111729     0.12990
C811        C  0.22955215  0.36999385  0.14071960    -0.24700
H812        H  0.18514572  0.42831941  0.14014971     0.14280
H813        H  0.17594829  0.35649959  0.02706442     0.14310
C814        C  0.12748666  0.40851522  0.02797131    -0.24650
H815        H  0.22824920  0.38872774  0.16426723     0.04520
H816        H  0.25768941  0.36965697  0.13021074     0.07750
H817        H  0.22227479  0.34256646  0.15031142     0.07750
H818        H  0.14112898  0.41513241  0.00199898     0.07730
H819        H  0.10872974  0.43035422  0.03499294     0.07730
H820        H  0.11110704  0.38373349  0.02416515     0.04510
C821        C  0.03136080  0.50419086  0.16280955    -0.21300
C822        C  0.04952350  0.48827646  0.13303279    -0.07860
C823        C  0.02814197  0.47062518  0.10648981     0.13000
C824        C  0.99087816  0.46851553  0.11080549    -0.21350
C825        C  0.97230449  0.48614083  0.13872767    -0.07870
C826        C  0.99313756  0.50328297  0.16606583     0.12990
C827        C  0.97650245  0.51923312  0.19969672    -0.24700
H828        H  0.04692049  0.51734203  0.18376692     0.14280
H829        H  0.97579272  0.45430617  0.09041774     0.14310
C830        C  0.04246434  0.45543470  0.07140960    -0.24650
H831        H  0.98266538  0.54850606  0.20120291     0.04520
H832        H  0.98788399  0.50574551  0.22390095     0.07750
H833        H  0.94698395  0.51550477  0.20059666     0.07750
H834        H  0.03795399  0.42583321  0.07041090     0.07730
H835        H  0.07102804  0.46096516  0.06750748     0.07730
H836        H  0.02827489  0.46814090  0.04827425     0.04510
C837        C  0.09724130  0.58768937  0.79511735    -0.21300
C838        C  0.09029764  0.61975729  0.81389588    -0.07860
C839        C  0.08906901  0.61978013  0.85218056     0.13000
C840        C  0.09365611  0.58709317  0.87065092    -0.21350
C841        C  0.10191449  0.55503901  0.85189446    -0.07870
C842        C  0.10454186  0.55563959  0.81351268     0.12990
C843        C  0.11720162  0.52409936  0.79080999    -0.24700
H844        H  0.09851169  0.58799854  0.76572952     0.14280
H845        H  0.09167388  0.58664941  0.89996818     0.14310
C846        C  0.08269460  0.65392907  0.87365041    -0.24650
H847        H  0.09574317  0.51637318  0.77147984     0.04520
H848        H  0.12502252  0.50026293  0.80690063     0.07750
H849        H  0.14140225  0.53215919  0.77491424     0.07750
H850        H  0.05710815  0.66691958  0.86528957     0.07730
H851        H  0.10535348  0.67293561  0.86905164     0.07730
H852        H  0.08103328  0.64856530  0.90321688     0.04510
C853        C  0.20502043  0.59821001  0.88571616    -0.21300
C854        C  0.20502624  0.61439759  0.92003985    -0.07860
C855        C  0.18369508  0.59934473  0.94781735     0.13000
C856        C  0.16048530  0.57065461  0.94009377    -0.21350
C857        C  0.16096452  0.55345853  0.90629408    -0.07870
C858        C  0.18483845  0.56671967  0.87909276     0.12990
C859        C  0.19099272  0.54774241  0.84346568    -0.24700
H860        H  0.22212809  0.60915054  0.86450080     0.14280
H861        H  0.14202979  0.56167207  0.96088692     0.14310
C862        C  0.18536528  0.61318327  0.98590638    -0.24650
H863        H  0.22011808  0.54133318  0.84029882     0.04520
H864        H  0.18273021  0.56564513  0.82092113     0.07750
H865        H  0.17621130  0.52193365  0.84148350     0.07750
H866        H  0.17768436  0.64214675  0.98710272     0.07730
H867        H  0.21294067  0.60923591  0.99661785     0.07730
H868        H  0.16701942  0.59761696  0.00342869     0.04510
C869        C  0.06050111  0.37123292  0.84097542    -0.21300
C870        C  0.08530415  0.36186312  0.81356502    -0.07860
C871        C  0.11632413  0.38306793  0.80816923     0.13000
C872        C  0.12146335  0.41382444  0.82972313    -0.21350
C873        C  0.09662362  0.42352019  0.85699986    -0.07870
C874        C  0.06613769  0.40150240  0.86330016     0.12990
C875        C  0.03936042  0.40901312  0.89325341    -0.24700
H876        H  0.03685310  0.35455702  0.84530414     0.14280
H877        H  0.14485013  0.43070587  0.82505731     0.14310
C878        C  0.14365372  0.37354853  0.77929102    -0.24650
H879        H  0.03770449  0.38524358  0.91142679     0.04520
H880        H  0.01240725  0.41409598  0.88140753     0.07750
H881        H  0.04680129  0.43267605  0.91003276     0.07750
H882        H  0.13051594  0.37340246  0.75233657     0.07730
H883        H  0.15510645  0.34639903  0.78471593     0.07730
H884        H  0.16623245  0.39320803  0.77848672     0.04510
C885        C  0.13656873  0.39425445  0.92778680    -0.21300
C886        C  0.15334249  0.42433473  0.91216173    -0.07860
C887        C  0.19035327  0.42247059  0.90236997     0.13000
C888        C  0.20994773  0.39104046  0.90987058    -0.21350
C889        C  0.19311875  0.36098047  0.92518205    -0.07870
C890        C  0.15596837  0.36231326  0.93398206     0.12990
C891        C  0.13691182  0.33032177  0.95033794    -0.24700
H892        H  0.10822139  0.39578437  0.93498979     0.14280
H893        H  0.23836042  0.38950469  0.90284445     0.14310
C894        C  0.20898378  0.45277808  0.88242532    -0.24650
H895        H  0.10819553  0.33647023  0.95661716     0.04520
H896        H  0.15031749  0.32232237  0.97589158     0.07750
H897        H  0.13762126  0.30727142  0.93105027     0.07750
H898        H  0.20971738  0.47757496  0.89924158     0.07730
H899        H  0.19453557  0.45858050  0.85687593     0.07730
H900        H  0.23729565  0.44574670  0.87528613     0.04510
C901        C  0.17906223  0.48402968  0.97887613    -0.21300
C902        C  0.14604379  0.49105524  0.96132734    -0.07860
C903        C  0.11546841  0.49879399  0.98314568     0.13000
C904        C  0.11819215  0.49964865  0.02068116    -0.21350
C905        C  0.15021677  0.49142413  0.03850721    -0.07870
C906        C  0.18149986  0.48425298  0.01738122     0.12990
C907        C  0.21725480  0.47771607  0.03516429    -0.24700
H908        H  0.20284185  0.47835787  0.96269606     0.14280
H909        H  0.09443442  0.50616657  0.03652525     0.14310
C910        C  0.07955462  0.50736699  0.96713078    -0.24650
H911        H  0.23899283  0.47320739  0.01478152     0.04520
H912        H  0.21587931  0.45358126  0.05273318     0.07750
H913        H  0.22463710  0.50152214  0.05183181     0.07750
H914        H  0.07113717  0.48493448  0.94912258     0.07730
H915        H  0.08219658  0.53320287  0.95237634     0.07730
H916        H  0.05809564  0.51104957  0.98799613     0.04510
C917        C  0.98961944  0.47896598  0.83575887    -0.21300
C918        C  0.97173371  0.49060305  0.86764910    -0.07860
C919        C  0.99295276  0.50611316  0.89532555     0.13000
C920        C  0.02992115  0.51081138  0.88974037    -0.21350
C921        C  0.04863720  0.49384764  0.86137374    -0.07870
C922        C  0.02780083  0.47854513  0.83305727     0.12990
C923        C  0.04431266  0.46269790  0.79929608    -0.24700
H924        H  0.97421901  0.46979175  0.81285927     0.14280
H925        H  0.04474475  0.52573133  0.90947914     0.14310
C926        C  0.97821153  0.51409819  0.93275268    -0.24650
H927        H  0.03568825  0.43417014  0.79626456     0.04520
H928        H  0.07403401  0.46335664  0.79971182     0.07750
H929        H  0.03506738  0.47812709  0.77533734     0.07750
H930        H  0.99811807  0.52845982  0.94990171     0.07730
H931        H  0.97249365  0.48811498  0.94612091     0.07730
H932        H  0.95347418  0.53074002  0.93239087     0.04510
C933        C  0.62271699  0.88021680  0.80741443    -0.21300
C934        C  0.64313588  0.91065811  0.81585706    -0.07860
C935        C  0.63259441  0.93307591  0.84507065     0.13000
C936        C  0.60056184  0.92555980  0.86411004    -0.21350
C937        C  0.57966300  0.89527913  0.85542580    -0.07870
C938        C  0.59115411  0.87210388  0.82688676     0.12990
C939        C  0.56977118  0.83946903  0.81579508    -0.24700
H940        H  0.63124585  0.86304669  0.78507898     0.14280
H941        H  0.59160667  0.94353293  0.88559661     0.14310
C942        C  0.65542986  0.96459863  0.85633641    -0.24650
H943        H  0.58203183  0.82540585  0.79208680     0.04520
H944        H  0.54228698  0.84765192  0.80834874     0.07750
H945        H  0.56823366  0.81989920  0.83814916     0.07750
H946        H  0.65813463  0.98363395  0.83340575     0.07730
H947        H  0.68265368  0.95493307  0.86414841     0.07730
H948        H  0.64345455  0.97922290  0.87984491     0.04510
C949        C  0.57616056  0.80635380  0.90709235    -0.21300
C950        C  0.57493067  0.84320430  0.91603732    -0.07860
C951        C  0.60472793  0.85900587  0.93378741     0.13000
C952        C  0.63603302  0.83827966  0.93915670    -0.21350
C953        C  0.63765872  0.80189778  0.92851450    -0.07870
C954        C  0.60715701  0.78553462  0.91302181     0.12990
C955        C  0.60775932  0.74649366  0.90149434    -0.24700
H956        H  0.55310772  0.79410936  0.89401812     0.14280
H957        H  0.65916079  0.85045149  0.95221445     0.14310
C958        C  0.60399545  0.89696765  0.94847157    -0.24650
H959        H  0.58185760  0.73821782  0.88902099     0.04520
H960        H  0.61250479  0.72904006  0.92538731     0.07750
H961        H  0.62965162  0.74206408  0.88126065     0.07750
H962        H  0.60768903  0.89630212  0.97830777     0.07730
H963        H  0.57821996  0.91103565  0.94301144     0.07730
H964        H  0.62633694  0.91279787  0.93623746     0.04510
C965        C  0.41037915  0.89148143  0.79382386    -0.21300
C966        C  0.38287009  0.91196925  0.80991763    -0.07860
C967        C  0.38797282  0.92673364  0.84476832     0.13000
C968        C  0.42058415  0.92040808  0.86279256    -0.21350
C969        C  0.44760038  0.89831398  0.84771937    -0.07870
C970        C  0.44257755  0.88431345  0.81238696     0.12990
C971        C  0.47125408  0.86224728  0.79389809    -0.24700
H972        H  0.40659928  0.88101979  0.76663842     0.14280
H973        H  0.42502317  0.93302230  0.88864888     0.14310
C974        C  0.35921164  0.94951656  0.86273709    -0.24650
H975        H  0.46239058  0.85216132  0.76701731     0.04520
H976        H  0.47822838  0.83858306  0.81086298     0.07750
H977        H  0.49519689  0.87953211  0.78943307     0.07750
H978        H  0.33422031  0.93338789  0.86625351     0.07730
H979        H  0.35329968  0.97344311  0.84571766     0.07730
H980        H  0.36770806  0.95922467  0.88988315     0.04510
C981        C  0.44034969  0.81085885  0.88853150    -0.21300
C982        C  0.44369950  0.84448798  0.90587525    -0.07860
C983        C  0.41465841  0.85813753  0.92687721     0.13000
C984        C  0.38296051  0.83757668  0.92974736    -0.21350
C985        C  0.38117145  0.80248373  0.91544156    -0.07870
C986        C  0.40977414  0.78924265  0.89392559     0.12990
C987        C  0.40787099  0.75247942  0.87656448    -0.24700
H988        H  0.46241467  0.80094212  0.87179060     0.14280
H989        H  0.36039501  0.84803093  0.94544075     0.14310
C990        C  0.41657684  0.89349052  0.94735083    -0.23690
H991        H  0.43244746  0.74639931  0.86024937     0.04520
H992        H  0.38417003  0.75117314  0.85836562     0.07750
H993        H  0.40518002  0.73150621  0.89782621     0.07750
H994        H  0.44273900  0.90734308  0.94355207     0.07730
H995        H  0.41312759  0.88936349  0.97684233     0.07730
H996        H  0.39450336  0.91159367  0.93841802     0.04510
C997        C  0.57435966  0.90617507  0.18204289    -0.21300
C998        C  0.57724261  0.90561762  0.14397589    -0.07860
C999        C  0.61071629  0.91498313  0.12758507     0.13000
C1000       C  0.64041569  0.92231686  0.14978900    -0.21350
C1001       C  0.63754004  0.92089673  0.18767283    -0.07870
C1002       C  0.60391066  0.91386413  0.20403460     0.12990
C1003       C  0.59942349  0.91252588  0.24464500    -0.24700
H1004       H  0.54919038  0.89857481  0.19479250     0.14280
H1005       H  0.66632374  0.92830598  0.13738292     0.14310
C1006       C  0.61705087  0.91517752  0.08728733    -0.24650
H1007       H  0.57148471  0.90512003  0.25272298     0.04520
H1008       H  0.60530434  0.93941030  0.25654112     0.07750
H1009       H  0.61808187  0.89212719  0.25612837     0.07750
H1010       H  0.59364555  0.90537249  0.07205910     0.07730
H1011       H  0.64002264  0.89706235  0.08038469     0.07730
H1012       H  0.62357850  0.94298722  0.07827442     0.04510
C1013       C  0.60734996  0.78332912  0.06847843    -0.21300
C1014       C  0.63984267  0.79273054  0.08534963    -0.07860
C1015       C  0.63809406  0.81708233  0.11493188     0.13000
C1016       C  0.60521981  0.83422253  0.12292071    -0.21350
C1017       C  0.57520316  0.83207621  0.09971135    -0.07870
C1018       C  0.57460527  0.79994357  0.07855904     0.12990
C1019       C  0.54241033  0.77537039  0.07804296    -0.24700
H1020       H  0.60677740  0.76042852  0.05011219     0.14280
H1021       H  0.60326960  0.84757168  0.14860367     0.14310
C1022       C  0.67000634  0.82515375  0.13881794    -0.24650
H1023       H  0.53796010  0.76501011  0.05020818     0.04520
H1024       H  0.51780532  0.78774917  0.08977409     0.07750
H1025       H  0.54822573  0.75151735  0.09523457     0.07750
H1026       H  0.69160331  0.83844019  0.12274336     0.07730
H1027       H  0.68023050  0.79983354  0.15108364     0.07730
H1028       H  0.66286907  0.84384727  0.16136188     0.04510
C1029       C  0.40947454  0.89231015  0.20203014    -0.21300
C1030       C  0.38076924  0.90946729  0.18483293    -0.07860
C1031       C  0.38439156  0.92042390  0.14838088     0.13000
C1032       C  0.41739092  0.91496091  0.13023504    -0.21350
C1033       C  0.44650350  0.89815972  0.14751558    -0.07870
C1034       C  0.44208029  0.88570584  0.18377692     0.12990
C1035       C  0.47103516  0.86620200  0.20477090    -0.24700
H1036       H  0.40640765  0.88394748  0.23002805     0.14280
H1037       H  0.42045097  0.92347034  0.10229662     0.14310
C1038       C  0.35357233  0.93810353  0.12877223    -0.24650
H1039       H  0.47738439  0.88125456  0.22997628     0.04520
H1040       H  0.49626133  0.86250952  0.18899069     0.07750
H1041       H  0.46116072  0.83951424  0.21376121     0.07750
H1042       H  0.34468144  0.96266714  0.14364553     0.07730
H1043       H  0.33058068  0.91903932  0.12697444     0.07730
H1044       H  0.36135175  0.94607658  0.10079968     0.04510
C1045       C  0.40441876  0.79296932  0.10976350    -0.21300
C1046       C  0.38688276  0.79636277  0.07659559    -0.07860
C1047       C  0.40172238  0.81937875  0.05021473     0.13000
C1048       C  0.42948638  0.84328448  0.05951370    -0.21350
C1049       C  0.44751770  0.83992983  0.09246800    -0.07870
C1050       C  0.43640103  0.81215284  0.11656414     0.12990
C1051       C  0.45895298  0.79948111  0.14760862    -0.24700
H1052       H  0.39472977  0.77332038  0.12923088     0.14280
H1053       H  0.43857973  0.86317532  0.04005094     0.14310
C1054       C  0.38997578  0.81713251  0.01170772    -0.24650
H1055       H  0.46673222  0.77087579  0.14291278     0.04520
H1056       H  0.44271178  0.80070126  0.17287655     0.07750
H1057       H  0.48422149  0.81501181  0.15048576     0.07750
H1058       H  0.36137321  0.82558466  0.00912495     0.07730
H1059       H  0.39375034  0.78922125  0.00139049     0.07730
H1060       H  0.40754739  0.83406068  0.99487982     0.04510
C1061       C  0.50219625  0.82263457  0.01946779    -0.21300
C1062       C  0.51177588  0.85417751  0.03878494    -0.07860
C1063       C  0.51416403  0.88636691  0.01798655     0.13000
C1064       C  0.51189410  0.88539280  0.97998896    -0.21350
C1065       C  0.50664904  0.85329896  0.96075944    -0.07870
C1066       C  0.50111190  0.82132316  0.98099506     0.12990
C1067       C  0.49333054  0.78590114  0.96277208    -0.24700
H1068       H  0.49317984  0.79933250  0.03428804     0.14280
H1069       H  0.51471205  0.91026711  0.96481082     0.14310
C1070       C  0.51826988  0.92259324  0.03519954    -0.24650
H1071       H  0.49238190  0.76340897  0.98258159     0.04520
H1072       H  0.51455889  0.77945760  0.94253825     0.07750
H1073       H  0.46674535  0.78707205  0.94955567     0.07750
H1074       H  0.54597484  0.92414236  0.04512686     0.07730
H1075       H  0.49792213  0.92648866  0.05701627     0.07730
H1076       H  0.51484019  0.94502120  0.01559310     0.04510
C1077       C  0.57505168  0.07496672  0.82130385    -0.21300
C1078       C  0.57495040  0.07106847  0.85912186    -0.07860
C1079       C  0.60686894  0.05939698  0.87625311     0.13000
C1080       C  0.63851506  0.05447888  0.85530560    -0.21350
C1081       C  0.63815338  0.05857912  0.81740585    -0.07870
C1082       C  0.60563205  0.06762888  0.80014345     0.12990
C1083       C  0.60365424  0.07238932  0.75963685    -0.24700
H1084       H  0.55147504  0.08571186  0.80828506     0.14280
H1085       H  0.66345583  0.04689546  0.86843469     0.14310
C1086       C  0.60762209  0.05300348  0.91649701    -0.24650
H1087       H  0.57645458  0.08138906  0.75095834     0.04520
H1088       H  0.60951646  0.04636275  0.74582205     0.07750
H1089       H  0.62351330  0.09299866  0.75074758     0.07750
H1090       H  0.58727607  0.03224092  0.92377813     0.07730
H1091       H  0.60137347  0.07837335  0.93135099     0.07730
H1092       H  0.63449148  0.04332224  0.92543624     0.04510
C1093       C  0.57039174  0.18071246  0.91101669    -0.21300
C1094       C  0.57405334  0.14606874  0.89609940    -0.07860
C1095       C  0.60627964  0.14157434  0.87618153     0.13000
C1096       C  0.63788718  0.15530633  0.89158350    -0.21350
C1097       C  0.63579329  0.18499247  0.91544533    -0.07870
C1098       C  0.60107636  0.19972157  0.92293994     0.12990
C1099       C  0.59580062  0.23462297  0.94334105    -0.24700
H1100       H  0.54380458  0.19183025  0.91541164     0.14280
H1101       H  0.66364896  0.14767028  0.87976237     0.14310
C1102       C  0.60448904  0.14927516  0.83615969    -0.24650
H1103       H  0.56687379  0.24240522  0.94492661     0.04520
H1104       H  0.61059480  0.25668518  0.92944450     0.07750
H1105       H  0.60555454  0.23169522  0.97154991     0.07750
H1106       H  0.57762231  0.14300736  0.82484686     0.07730
H1107       H  0.62619380  0.13469943  0.82131417     0.07730
H1108       H  0.60842329  0.17864972  0.83149177     0.04510
C1109       C  0.41341901  0.07038357  0.80033145    -0.21300
C1110       C  0.38029446  0.06559845  0.81778249    -0.07860
C1111       C  0.37841205  0.06862898  0.85599076     0.13000
C1112       C  0.41008327  0.07538599  0.87568390    -0.21350
C1113       C  0.44387838  0.07935665  0.85833744    -0.07870
C1114       C  0.44479195  0.07830265  0.81981108     0.12990
C1115       C  0.47790895  0.08818649  0.79850087    -0.24700
H1116       H  0.41454658  0.06897012  0.77097933     0.14280
H1117       H  0.40815059  0.07894603  0.90478113     0.14310
C1118       C  0.34328157  0.06435168  0.87629274    -0.24650
H1119       H  0.47171518  0.09342623  0.76957406     0.04520
H1120       H  0.49677913  0.06530950  0.79900935     0.07750
H1121       H  0.49038847  0.11301126  0.80973835     0.07750
H1122       H  0.33105156  0.03779888  0.86975154     0.07730
H1123       H  0.32443749  0.08634575  0.86878942     0.07730
H1124       H  0.34711801  0.06573294  0.90609562     0.04510
C1125       C  0.42514577  0.15375813  0.87716865    -0.21300
C1126       C  0.44822669  0.14751271  0.90693926    -0.07860
C1127       C  0.43917327  0.16662637  0.93923926     0.13000
C1128       C  0.40388266  0.17815623  0.94497787    -0.21350
C1129       C  0.37972296  0.18115685  0.91638311    -0.07870
C1130       C  0.39063319  0.16939670  0.88160327     0.12990
C1131       C  0.36635226  0.17326116  0.84932479    -0.24700
H1132       H  0.43376821  0.14598076  0.85023590     0.14280
H1133       H  0.39702258  0.18984514  0.97116811     0.14310
C1134       C  0.46569443  0.18839143  0.96036286    -0.24650
H1135       H  0.37946274  0.16308248  0.82411690     0.04520
H1136       H  0.35934882  0.20211966  0.84533414     0.07750
H1137       H  0.34133047  0.15740486  0.85370369     0.07750
H1138       H  0.45612696  0.21669083  0.96391120     0.07730
H1139       H  0.49107822  0.19141276  0.94508664     0.07730
H1140       H  0.46832286  0.17696736  0.98790144     0.04510
C1141       C  0.49433536  0.96360568  0.89107162    -0.21300
C1142       C  0.51226506  0.94713567  0.86216855    -0.07860
C1143       C  0.52609921  0.96966786  0.83460892     0.13000
C1144       C  0.52389882  0.00775994  0.83874449    -0.21350
C1145       C  0.50561004  0.02482986  0.86824568    -0.07870
C1146       C  0.48703042  0.00054704  0.89206356     0.12990
C1147       C  0.45610866  0.00961369  0.91666914    -0.24700
H1148       H  0.48310424  0.94672254  0.91225442     0.14280
H1149       H  0.53508399  0.02342768  0.81718477     0.14310
C1150       C  0.54252054  0.95476456  0.80029646    -0.24650
H1151       H  0.46206146  0.00110605  0.94481838     0.04520
H1152       H  0.43160634  0.99501505  0.90765216     0.07750
H1153       H  0.44933749  0.03779272  0.91608385     0.07750
H1154       H  0.52750365  0.96526862  0.77662081     0.07730
H1155       H  0.54142702  0.92493824  0.79910142     0.07730
H1156       H  0.57110970  0.96342114  0.79808301     0.04510
C1157       C  0.61067842  0.07865903  0.13570115    -0.21300
C1158       C  0.57632039  0.08079867  0.15193059    -0.07860
C1159       C  0.57403354  0.07577764  0.19017643     0.13000
C1160       C  0.60555408  0.06812064  0.20998468    -0.21350
C1161       C  0.63990936  0.06961519  0.19383124    -0.07870
C1162       C  0.64235557  0.07663768  0.15621746     0.12990
C1163       C  0.67803748  0.08194602  0.13709145    -0.24700
H1164       H  0.61305366  0.07917595  0.10659384     0.14280
H1165       H  0.60340771  0.06295516  0.23883408     0.14310
C1166       C  0.53956123  0.07970135  0.21178559    -0.24650
H1167       H  0.67457990  0.08700561  0.10765258     0.04520
H1168       H  0.69520214  0.05758618  0.14014271     0.07750
H1169       H  0.69194057  0.10590118  0.14853877     0.07750
H1170       H  0.53215601  0.05325515  0.22376714     0.07730
H1171       H  0.51664851  0.09006796  0.19594065     0.07730
H1172       H  0.54376494  0.09936539  0.23413658     0.04510
C1173       C  0.59867113  0.13166702  0.06455605    -0.21300
C1174       C  0.57798210  0.13952263  0.09559597    -0.07860
C1175       C  0.58891063  0.16742684  0.11937447     0.13000
C1176       C  0.61998637  0.18722856  0.11107833    -0.21350
C1177       C  0.64019278  0.17962015  0.07985567    -0.07870
C1178       C  0.62979028  0.15138098  0.05644181     0.12990
C1179       C  0.65165052  0.14180056  0.02317181    -0.24700
H1180       H  0.59045637  0.10982934  0.04681481     0.14280
H1181       H  0.62838760  0.20888051  0.12896980     0.14310
C1182       C  0.56842587  0.17721933  0.15344770    -0.24650
H1183       H  0.63992444  0.11852048  0.00831939     0.04520
H1184       H  0.67956847  0.13453184  0.03113092     0.07750
H1185       H  0.65247824  0.16512166  0.00440492     0.07750
H1186       H  0.54480316  0.15966898  0.15851051     0.07730
H1187       H  0.55877819  0.20555151  0.15160770     0.07730
H1188       H  0.58656713  0.17472875  0.17713016     0.04510
C1189       C  0.43649100  0.10074169  0.17123467    -0.21300
C1190       C  0.44565074  0.07802501  0.14203779    -0.07860
C1191       C  0.42325398  0.04836969  0.13353550     0.13000
C1192       C  0.39287207  0.04161360  0.15534991    -0.21350
C1193       C  0.38393126  0.06430826  0.18457508    -0.07870
C1194       C  0.40568207  0.09437809  0.19243854     0.12990
C1195       C  0.39653722  0.11946437  0.22337379    -0.24700
H1196       H  0.45363774  0.12361052  0.17740943     0.14280
H1197       H  0.37568678  0.01885245  0.14913795     0.14310
C1198       C  0.43031421  0.02374437  0.10165778    -0.24650
H1199       H  0.41658294  0.14156054  0.22594226     0.04520
H1200       H  0.39604628  0.10415671  0.24919248     0.07750
H1201       H  0.36963005  0.13182243  0.21889689     0.07750
H1202       H  0.45423641  0.03193339  0.08550552     0.07730
H1203       H  0.40661861  0.02402621  0.08341485     0.07730
H1204       H  0.43464257  0.99574597  0.11137833     0.04510
C1205       C  0.41787350  0.11999574  0.07187739    -0.21300
C1206       C  0.44670009  0.13782527  0.08878471    -0.07860
C1207       C  0.44312300  0.17520449  0.09676713     0.13000
C1208       C  0.41153223  0.19364178  0.08699222    -0.21350
C1209       C  0.38251545  0.17556235  0.07120248    -0.07870
C1210       C  0.38560791  0.13825390  0.06360554     0.12990
C1211       C  0.35516415  0.11785904  0.04616200    -0.24700
H1212       H  0.42061075  0.09165414  0.06517417     0.14280
H1213       H  0.40900537  0.22221691  0.09303095     0.14310
C1214       C  0.47113793  0.19643876  0.11706435    -0.24650
H1215       H  0.36231117  0.08908604  0.04139162     0.04520
H1216       H  0.34858588  0.13024954  0.01964321     0.07750
H1217       H  0.33094216  0.11868411  0.06400516     0.07750
H1218       H  0.48140846  0.21861768  0.09969539     0.07730
H1219       H  0.49417394  0.17985126  0.12588636     0.07730
H1220       H  0.45873539  0.20834448  0.14185481     0.04510
C1221       C  0.49668450  0.01108726  0.16254292    -0.21300
C1222       C  0.51391959  0.02931994  0.13402072    -0.07860
C1223       C  0.53254423  0.00849080  0.10763255     0.13000
C1224       C  0.53316434  0.97092527  0.11061433    -0.21350
C1225       C  0.51328865  0.95184399  0.13678753    -0.07870
C1226       C  0.49690850  0.97296366  0.16480937     0.12990
C1227       C  0.48461525  0.95737589  0.19994566    -0.24700
H1228       H  0.48366559  0.02671890  0.18380662     0.14280
H1229       H  0.54951996  0.95638802  0.09151680     0.14310
C1230       C  0.55091628  0.02404852  0.07452076    -0.24650
H1231       H  0.49520724  0.97362892  0.22288318     0.04520
H1232       H  0.49622426  0.93043043  0.20324390     0.07750
H1233       H  0.45472453  0.95734664  0.20151318     0.07750
H1234       H  0.58044861  0.01932267  0.07615999     0.07730
H1235       H  0.54602635  0.05305995  0.07052336     0.07730
H1236       H  0.54055230  0.01040012  0.04984945     0.04510
C1237       C  0.50141217  0.09957526  0.02290925    -0.21300
C1238       C  0.51509479  0.12899660  0.04199576    -0.07860
C1239       C  0.53066531  0.15728275  0.02185903     0.13000
C1240       C  0.53400977  0.15390127  0.98375361    -0.21350
C1241       C  0.51649692  0.12613017  0.96357718    -0.07870
C1242       C  0.50067101  0.09852290  0.98497934     0.12990
C1243       C  0.48227615  0.06738475  0.96854693    -0.24700
H1244       H  0.48995623  0.07730021  0.03810390     0.14280
H1245       H  0.54621532  0.17639877  0.97097171     0.14310
C1246       C  0.54124456  0.19265458  0.03898655    -0.24650
H1247       H  0.47425846  0.04664694  0.98873361     0.04520
H1248       H  0.50114898  0.05455902  0.94897577     0.07750
H1249       H  0.45718720  0.07774038  0.95623403     0.07750
H1250       H  0.57033574  0.19790148  0.03414399     0.07730
H1251       H  0.53576247  0.19334099  0.06849971     0.07730
H1252       H  0.52542640  0.21482182  0.02654819     0.04510
C1253       C  0.88665506  0.82689117  0.59280404    -0.21300
C1254       C  0.90960931  0.82568983  0.56218643    -0.07860
C1255       C  0.93470198  0.79653046  0.56240057     0.13000
C1256       C  0.94567194  0.78185578  0.59556759    -0.21350
C1257       C  0.92730829  0.79008715  0.62790816    -0.07870
C1258       C  0.89578721  0.81138725  0.62595730     0.12990
C1259       C  0.87078088  0.81757322  0.65790917    -0.24700
H1260       H  0.86005427  0.83748796  0.59119002     0.14280
H1261       H  0.96677037  0.76153814  0.59552558     0.14310
C1262       C  0.94317413  0.77376241  0.52960177    -0.24650
H1263       H  0.84670424  0.83380447  0.65052804     0.04520
H1264       H  0.88497956  0.83282366  0.67945118     0.07750
H1265       H  0.86100105  0.79131058  0.66849207     0.07750
H1266       H  0.97275599  0.77208339  0.52540409     0.07730
H1267       H  0.92911349  0.78291692  0.50497766     0.07730
H1268       H  0.93342632  0.74583918  0.53444405     0.04510
C1269       C  0.87588738  0.91017694  0.59044167    -0.21300
C1270       C  0.85733387  0.89354103  0.56184847    -0.07860
C1271       C  0.81992028  0.88657895  0.56575349     0.13000
C1272       C  0.80190315  0.89757937  0.59739305    -0.21350
C1273       C  0.82089413  0.91255341  0.62631228    -0.07870
C1274       C  0.85832488  0.91861782  0.62313466     0.12990
C1275       C  0.87984965  0.93357441  0.65427246    -0.24700
H1276       H  0.90440742  0.91516755  0.58809098     0.14280
H1277       H  0.77328094  0.89237670  0.60053697     0.14310
C1278       C  0.79991374  0.86390158  0.53862591    -0.24650
H1279       H  0.90862553  0.93755144  0.64673936     0.04520
H1280       H  0.87893544  0.91452348  0.67740629     0.07750
H1281       H  0.86856632  0.95999009  0.66300945     0.07750
H1282       H  0.81278252  0.83688050  0.53652945     0.07730
H1283       H  0.80053478  0.87690192  0.51181719     0.07730
H1284       H  0.77121458  0.86003608  0.54649873     0.04510
C1285       C  0.80954909  0.87892972  0.39405469    -0.21300
C1286       C  0.82281137  0.90322253  0.36840056    -0.07860
C1287       C  0.85769209  0.91778687  0.37229446     0.13000
C1288       C  0.87671059  0.91129244  0.40434053    -0.21350
C1289       C  0.86280566  0.88825747  0.43097677    -0.07870
C1290       C  0.82992748  0.86996689  0.42455585     0.12990
C1291       C  0.81628295  0.83986157  0.44823647    -0.24700
H1292       H  0.78355278  0.86626588  0.38984427     0.14280
H1293       H  0.90259984  0.92393202  0.40851511     0.14310
C1294       C  0.87515892  0.93908701  0.34220794    -0.24650
H1295       H  0.81456644  0.81470419  0.43189275     0.04520
H1296       H  0.78885843  0.84653863  0.45849093     0.07750
H1297       H  0.83415286  0.83423417  0.47148389     0.07750
H1298       H  0.85805413  0.96237578  0.33460388     0.07730
H1299       H  0.87862594  0.92147536  0.31801845     0.07730
H1300       H  0.90219114  0.94921254  0.35002104     0.04510
C1301       C  0.95090468  0.83173835  0.37423234    -0.21300
C1302       C  0.93448920  0.79792644  0.37015573    -0.07860
C1303       C  0.91265191  0.78401664  0.39808403     0.13000
C1304       C  0.90699423  0.80476475  0.42937039    -0.21350
C1305       C  0.92356910  0.83853398  0.43358448    -0.07870
C1306       C  0.94652638  0.85189159  0.40614900     0.12990
C1307       C  0.96730388  0.88656741  0.41013685    -0.24700
H1308       H  0.96732161  0.84238279  0.35246003     0.14280
H1309       H  0.88933269  0.79477979  0.45060266     0.14310
C1310       C  0.89494089  0.74764922  0.39455676    -0.24650
H1311       H  0.99658048  0.88048762  0.40938942     0.04520
H1312       H  0.96141460  0.90076066  0.43603080     0.07750
H1313       H  0.96085352  0.90499705  0.38741135     0.07750
H1314       H  0.91588766  0.72641347  0.39119161     0.07730
H1315       H  0.87701846  0.74746229  0.37056752     0.07730
H1316       H  0.87843021  0.74100817  0.41886242     0.04510
C1317       C  0.92553246  0.16332828  0.56268853    -0.21300
C1318       C  0.93306711  0.12620731  0.56601549    -0.07860
C1319       C  0.94471552  0.11321259  0.60011085     0.13000
C1320       C  0.94685796  0.13699032  0.62983330    -0.21350
C1321       C  0.93998681  0.17402291  0.62611716    -0.07870
C1322       C  0.92976051  0.18743825  0.59195292     0.12990
C1323       C  0.92225911  0.22700545  0.58660933    -0.24700
H1324       H  0.91592172  0.17349851  0.53698979     0.14280
H1325       H  0.95545045  0.12672269  0.65588874     0.14310
C1326       C  0.95635825  0.07487307  0.60595485    -0.24650
H1327       H  0.91374905  0.23289054  0.55842837     0.04520
H1328       H  0.94699061  0.24286319  0.59218935     0.07750
H1329       H  0.90036601  0.23586310  0.60532475     0.07750
H1330       H  0.95988315  0.06015043  0.58004715     0.07730
H1331       H  0.93650261  0.06111171  0.62371538     0.07730
H1332       H  0.98268706  0.07426323  0.61991336     0.04510
C1333       C  0.85195234  0.10033066  0.57963774    -0.21300
C1334       C  0.87383730  0.07062632  0.56950162    -0.07860
C1335       C  0.87017729  0.03848632  0.59038555     0.13000
C1336       C  0.84358496  0.03601070  0.61744282    -0.21350
C1337       C  0.82287824  0.06575237  0.62794884    -0.07870
C1338       C  0.82757481  0.09864554  0.60931109     0.12990
C1339       C  0.80633492  0.13161637  0.62018240    -0.24700
H1340       H  0.85407667  0.12515524  0.56433319     0.14280
H1341       H  0.84078075  0.01104198  0.63246554     0.14310
C1342       C  0.89589868  0.00748821  0.58861008    -0.24650
H1343       H  0.81276710  0.15503724  0.60258225     0.04520
H1344       H  0.81275883  0.13913067  0.64856374     0.07750
H1345       H  0.77702515  0.12594119  0.61807735     0.07750
H1346       H  0.90483180  0.00015232  0.61629196     0.07730
H1347       H  0.92036080  0.01520220  0.57419068     0.07730
H1348       H  0.88271812  0.98377251  0.57605564     0.04510
C1349       C  0.92490589  0.16318563  0.43938418    -0.21300
C1350       C  0.92778107  0.12542938  0.43458636    -0.07860
C1351       C  0.93623411  0.11251929  0.39905152     0.13000
C1352       C  0.93941624  0.13688321  0.37011233    -0.21350
C1353       C  0.93676207  0.17420475  0.37523854    -0.07870
C1354       C  0.92981046  0.18759152  0.41044763     0.12990
C1355       C  0.92654141  0.22752510  0.41737434    -0.24700
H1356       H  0.91861299  0.17374380  0.46611943     0.14280
H1357       H  0.94557840  0.12655585  0.34320527     0.14310
C1358       C  0.94414676  0.07390923  0.38987291    -0.24650
H1359       H  0.92001661  0.23345578  0.44621643     0.04520
H1360       H  0.90474606  0.23896314  0.40037690     0.07750
H1361       H  0.95241179  0.24104392  0.41065760     0.07750
H1362       H  0.92442697  0.06395377  0.36966306     0.07730
H1363       H  0.94305746  0.05665398  0.41364358     0.07730
H1364       H  0.97173946  0.07159333  0.37816093     0.04510
C1365       C  0.84812582  0.09569433  0.42780004    -0.21300
C1366       C  0.87090515  0.06704983  0.43813695    -0.07860
C1367       C  0.86976194  0.03450035  0.41771417     0.13000
C1368       C  0.84470344  0.03093204  0.38969629    -0.21350
C1369       C  0.82343368  0.05996414  0.37855403    -0.07870
C1370       C  0.82534414  0.09292070  0.39755629     0.12990
C1371       C  0.80298606  0.12486144  0.38629506    -0.24700
H1372       H  0.84884348  0.12076074  0.44302609     0.14280
H1373       H  0.84330549  0.00577866  0.37487865     0.14310
C1374       C  0.89599167  0.00390819  0.42207893    -0.24650
H1375       H  0.80725268  0.14844427  0.40442890     0.04520
H1376       H  0.77393358  0.11766313  0.38719796     0.07750
H1377       H  0.81045975  0.13296095  0.35830050     0.07750
H1378       H  0.91780969  0.01017165  0.44117546     0.07730
H1379       H  0.90917533  0.99783567  0.39565041     0.07730
H1380       H  0.88124752  0.97969756  0.43128860     0.04510
C1381       C  0.84782256  0.00148483  0.49883345    -0.21300
C1382       C  0.88258069  0.01568020  0.50449622    -0.07860
C1383       C  0.91177965  0.99082465  0.50731606     0.13000
C1384       C  0.90599655  0.95410539  0.50250741    -0.21350
C1385       C  0.87176460  0.93957143  0.49836635    -0.07870
C1386       C  0.84194914  0.96362602  0.49618615     0.12990
C1387       C  0.80435503  0.95011685  0.49021776    -0.24700
H1388       H  0.82537705  0.02003808  0.49616230     0.14280
H1389       H  0.92905644  0.93623844  0.50173717     0.14310
C1390       C  0.95013700  0.00093102  0.51482358    -0.24650
H1391       H  0.78542409  0.97262585  0.48447966     0.04520
H1392       H  0.79452394  0.93668547  0.51507306     0.07750
H1393       H  0.80379895  0.93125976  0.46681569     0.07750
H1394       H  0.95994320  0.98632843  0.53901479     0.07730
H1395       H  0.95347079  0.02992235  0.52070149     0.07730
H1396       H  0.96700779  0.99188238  0.49160693     0.04510
C1397       C  0.16679705  0.05528202  0.62629466    -0.21300
C1398       C  0.20265703  0.06698032  0.62690227    -0.07860
C1399       C  0.21787951  0.08293691  0.59578114     0.13000
C1400       C  0.19620071  0.08847148  0.56521955    -0.21350
C1401       C  0.16000972  0.07727686  0.56461565    -0.07870
C1402       C  0.14554208  0.05933328  0.59527857     0.12990
C1403       C  0.10863611  0.04280123  0.59609723    -0.24700
H1404       H  0.15559113  0.04186720  0.64990736     0.14280
H1405       H  0.20744597  0.10190920  0.54166655     0.14310
C1406       C  0.25673330  0.09464151  0.59508016    -0.24650
H1407       H  0.11102716  0.01330152  0.60085744     0.04520
H1408       H  0.09416437  0.04653254  0.57045726     0.07750
H1409       H  0.09259897  0.05495402  0.61852463     0.07750
H1410       H  0.27452521  0.07092034  0.59939164     0.07730
H1411       H  0.26144942  0.11480627  0.61686206     0.07730
H1412       H  0.26423639  0.10705618  0.56873199     0.04510
C1413       C  0.06611399  0.15549477  0.61574198    -0.21300
C1414       C  0.09243321  0.17988229  0.62727101    -0.07860
C1415       C  0.12585163  0.18141123  0.60896343     0.13000
C1416       C  0.13148677  0.15959940  0.57821443    -0.21350
C1417       C  0.10504856  0.13518833  0.56633638    -0.07870
C1418       C  0.07237204  0.13228282  0.58631344     0.12990
C1419       C  0.04393340  0.10452809  0.57868869    -0.24700
H1420       H  0.04081398  0.15371811  0.63060720     0.14280
H1421       H  0.15665482  0.16163091  0.56322961     0.14310
C1422       C  0.15518090  0.20648714  0.62144845    -0.24650
H1423       H  0.03990200  0.08785982  0.60322694     0.04520
H1424       H  0.05131886  0.08601495  0.55642137     0.07750
H1425       H  0.01814468  0.11809653  0.57205396     0.07750
H1426       H  0.16322262  0.19943474  0.64947904     0.07730
H1427       H  0.14525609  0.23477945  0.62098824     0.07730
H1428       H  0.17951368  0.20462282  0.60379759     0.04510
C1429       C  0.08166135  0.14705977  0.37296334    -0.21300
C1430       C  0.09268657  0.18306444  0.37284166    -0.07860
C1431       C  0.11064759  0.19732861  0.40316814     0.13000
C1432       C  0.11737278  0.17488249  0.43307478    -0.21350
C1433       C  0.10635079  0.13854441  0.43340623    -0.07870
C1434       C  0.08762841  0.12476612  0.40287937     0.12990
C1435       C  0.07214070  0.08749056  0.40070754    -0.24700
H1436       H  0.06738651  0.13641077  0.34968100     0.14280
H1437       H  0.13150680  0.18566750  0.45633588     0.14310
C1438       C  0.12324484  0.23590716  0.40360234    -0.24650
H1439       H  0.04253798  0.08927620  0.39667083     0.04520
H1440       H  0.07686673  0.07191782  0.42534553     0.07750
H1441       H  0.08434873  0.07280642  0.37737899     0.07750
H1442       H  0.09976234  0.25430642  0.40079629     0.07730
H1443       H  0.14231839  0.24046698  0.38074177     0.07730
H1444       H  0.13724383  0.24270668  0.42924909     0.04510
C1445       C  0.18441376  0.10528868  0.42077198    -0.21300
C1446       C  0.15954174  0.07882403  0.43197851    -0.07860
C1447       C  0.15610312  0.04680370  0.41105115     0.13000
C1448       C  0.17887977  0.04157590  0.38108132    -0.21350
C1449       C  0.20302960  0.06827346  0.36981350    -0.07870
C1450       C  0.20560416  0.10071207  0.38946409     0.12990
C1451       C  0.23118725  0.13003567  0.37783687    -0.24700
H1452       H  0.18713329  0.12981322  0.43663649     0.14280
H1453       H  0.17701780  0.01680303  0.36558003     0.14310
C1454       C  0.12848615  0.01795468  0.41815605    -0.24650
H1455       H  0.23013207  0.15357325  0.39655205     0.04520
H1456       H  0.22398611  0.13953462  0.35030877     0.07750
H1457       H  0.25922386  0.11942957  0.37738560     0.07750
H1458       H  0.10945929  0.02511387  0.44005435     0.07730
H1459       H  0.14236618  0.99247982  0.42528140     0.07730
H1460       H  0.11230343  0.01325005  0.39338148     0.04510
C1461       C  0.04171521  0.09486087  0.48695653    -0.21300
C1462       C  0.05703080  0.12736622  0.49735824    -0.07860
C1463       C  0.03407056  0.15685382  0.50556701     0.13000
C1464       C  0.99606777  0.15140816  0.50589095    -0.21350
C1465       C  0.98095465  0.11764483  0.49633783    -0.07870
C1466       C  0.00493637  0.09024937  0.48392969     0.12990
C1467       C  0.99452717  0.05520500  0.46675519    -0.24700
H1468       H  0.05913390  0.07188365  0.48174303     0.14280
H1469       H  0.97840535  0.17358032  0.51308453     0.14310
C1470       C  0.04936800  0.19351359  0.51363302    -0.24650
H1471       H  0.00431374  0.05454336  0.43829431     0.04520
H1472       H  0.96550384  0.05051823  0.46667380     0.07750
H1473       H  0.00814003  0.03286961  0.48124757     0.07750
H1474       H  0.06553103  0.20290458  0.49006606     0.07730
H1475       H  0.06688905  0.19244795  0.53778951     0.07730
H1476       H  0.02767929  0.21359820  0.51898247     0.04510
C1477       C  0.07474630  0.85429388  0.59080956    -0.21300
C1478       C  0.10080063  0.84261571  0.56545280    -0.07860
C1479       C  0.11997318  0.81027142  0.57240393     0.13000
C1480       C  0.11340123  0.79111999  0.60440566    -0.21350
C1481       C  0.08703001  0.80259490  0.62892256    -0.07870
C1482       C  0.06709983  0.83421587  0.62206680     0.12990
C1483       C  0.03771837  0.84663397  0.64767200    -0.24700
H1484       H  0.06048534  0.87931887  0.58671785     0.14280
H1485       H  0.12810948  0.76640469  0.60982582     0.14310
C1486       C  0.14598611  0.79451671  0.54545453    -0.24650
H1487       H  0.02464336  0.87186660  0.63817784     0.04520
H1488       H  0.04920389  0.85180166  0.67491014     0.07750
H1489       H  0.01661832  0.82548459  0.64982604     0.07750
H1490       H  0.16597385  0.81497010  0.53703790     0.07730
H1491       H  0.13028687  0.78477779  0.52204342     0.07730
H1492       H  0.16090179  0.77103748  0.55656585     0.04510
C1493       C  0.13763988  0.91418755  0.59643218    -0.21300
C1494       C  0.15614019  0.90177220  0.56536564    -0.07860
C1495       C  0.19438859  0.89894184  0.56697097     0.13000
C1496       C  0.21257002  0.90831641  0.59865010    -0.21350
C1497       C  0.19391432  0.91850636  0.62978515    -0.07870
C1498       C  0.15592941  0.92146142  0.62898820     0.12990
C1499       C  0.13479223  0.93305851  0.66203941    -0.24700
H1500       H  0.10882567  0.91825781  0.59536427     0.14280
H1501       H  0.24174914  0.90626329  0.59965947     0.14310
C1502       C  0.21688461  0.88483295  0.53630351    -0.24650
H1503       H  0.10545799  0.93496303  0.65637065     0.04520
H1504       H  0.14422905  0.95996068  0.67130845     0.07750
H1505       H  0.13848109  0.91311589  0.68408974     0.07750
H1506       H  0.21314165  0.90224020  0.51259657     0.07730
H1507       H  0.20939394  0.85655628  0.53072573     0.07730
H1508       H  0.24618201  0.88491950  0.54244289     0.04510
C1509       C  0.07610722  0.85772786  0.40649780    -0.21300
C1510       C  0.09998587  0.84420464  0.43252800    -0.07860
C1511       C  0.11875882  0.81146569  0.42507583     0.13000
C1512       C  0.11107565  0.79189126  0.39364557    -0.21350
C1513       C  0.08685744  0.80506693  0.36828111    -0.07870
C1514       C  0.07030490  0.83899435  0.37381052     0.12990
C1515       C  0.04743815  0.85558119  0.34474209    -0.24700
H1516       H  0.06275360  0.88332848  0.41141531     0.14280
H1517       H  0.12443804  0.76623716  0.38870515     0.14310
C1518       C  0.14652860  0.79560897  0.44973670    -0.24650
H1519       H  0.03527753  0.88158103  0.35364729     0.04520
H1520       H  0.02563060  0.83668598  0.33715817     0.07750
H1521       H  0.06435376  0.86077901  0.32036752     0.07750
H1522       H  0.15133815  0.81286785  0.47345121     0.07730
H1523       H  0.17237067  0.79218498  0.43478453     0.07730
H1524       H  0.13751486  0.76864659  0.45916458     0.04510
C1525       C  0.13752387  0.92103410  0.40448107    -0.21300
C1526       C  0.15426936  0.90160562  0.43237004    -0.07860
C1527       C  0.19007550  0.88891132  0.42666971     0.13000
C1528       C  0.20899632  0.89861438  0.39539544    -0.21350
C1529       C  0.19230149  0.91766703  0.36781062    -0.07870
C1530       C  0.15578216  0.92807611  0.37163052     0.12990
C1531       C  0.13606449  0.94603753  0.34102169    -0.24700
H1532       H  0.10993666  0.93010007  0.40816605     0.14280
H1533       H  0.23666198  0.88959667  0.39169319     0.14310
C1534       C  0.20892700  0.86318035  0.45135469    -0.24650
H1535       H  0.10793693  0.95314313  0.34883073     0.04520
H1536       H  0.13500637  0.92742870  0.31740016     0.07750
H1537       H  0.15017867  0.97106778  0.33277357     0.07750
H1538       H  0.19175699  0.85546194  0.47437038     0.07730
H1539       H  0.23434877  0.87543799  0.46118705     0.07730
H1540       H  0.21610891  0.83824236  0.43618757     0.04510
C1541       C  0.11746312  0.01023208  0.50767706    -0.21300
C1542       C  0.14966005  0.02825142  0.49972431    -0.07860
C1543       C  0.18092330  0.00738755  0.49222356     0.13000
C1544       C  0.17845346  0.96906828  0.49154806    -0.21350
C1545       C  0.14581779  0.95117191  0.49986962    -0.07870
C1546       C  0.11509358  0.97262361  0.50790716     0.12990
C1547       C  0.07898202  0.95618830  0.51603239    -0.24700
H1548       H  0.09325955  0.02601147  0.51241034     0.14280
H1549       H  0.20197630  0.95337703  0.48416233     0.14310
C1550       C  0.21673313  0.02520252  0.48541514    -0.24650
H1551       H  0.05743166  0.97682742  0.51952142     0.04520
H1552       H  0.08079530  0.94116715  0.54179871     0.07750
H1553       H  0.07098099  0.93814211  0.49341371     0.07750
H1554       H  0.22424719  0.04175265  0.50928526     0.07730
H1555       H  0.21546490  0.04273075  0.46124225     0.07730
H1556       H  0.23841883  0.00496605  0.48070172     0.04510
C1557       C  0.02826203  0.87526147  0.52060816    -0.21300
C1558       C  0.04863051  0.84972075  0.50128079    -0.07860
C1559       C  0.02899380  0.82202953  0.48358530     0.13000
C1560       C  0.99073640  0.82385395  0.48206725    -0.21350
C1561       C  0.97037453  0.84901432  0.50288340    -0.07870
C1562       C  0.99054409  0.87429335  0.52352669     0.12990
C1563       C  0.97444228  0.90207968  0.54850538    -0.24700
H1564       H  0.04198543  0.89692718  0.53399727     0.14280
H1565       H  0.97679055  0.80353151  0.46642234     0.14310
C1566       C  0.04679290  0.78852458  0.46917876    -0.24650
H1567       H  0.94511629  0.90227773  0.54837671     0.04520
H1568       H  0.98381486  0.92925167  0.54028732     0.07750
H1569       H  0.98343589  0.89690550  0.57666824     0.07750
H1570       H  0.07548329  0.78720046  0.47700600     0.07730
H1571       H  0.04396701  0.78718824  0.43928403     0.07730
H1572       H  0.03360347  0.76444426  0.48120780     0.04510
loop_ 
_geom_bond_atom_site_label_1 
_geom_bond_atom_site_label_2 
_geom_bond_distance 
_geom_bond_site_symmetry_2 
_ccdc_geom_bond_type 
C1            C2   1.429       .  A
C1            C6   1.433       .  A
C1         C1478   1.496       .  S
C2            C3   1.427       .  A
C2         C1558   1.528       .  S
C3            C4   1.426       .  A
C3         C1510   1.491       .  S
C4            C5   1.416       .  A
C4         C1526   1.496       .  S
C5            C6   1.419       .  A
C5         C1545   1.511       .  S
C6         C1494   1.507       .  S
C7            C8   1.424       .  A
C7           C12   1.425       .  A
C7         C1446   1.489       .  S
C8            C9   1.416       .  A
C8         C1542   1.502       .  S
C9           C10   1.421       .  A
C9         C1401   1.492       .  S
C10          C11   1.417       .  A
C10        C1417   1.490       .  S
C11          C12   1.415       .  A
C11        C1462   1.490       .  S
C12        C1433   1.500       .  S
C13          C14   1.417       .  A
C13          C18   1.431       .  A
C13        C1350   1.522       .  S
C14          C15   1.430       .  A
C14        C1465   1.506       .  S
C15          C16   1.436       .  A
C15        C1318   1.505       .  S
C16          C17   1.429       .  A
C16        C1334   1.525       .  S
C17          C18   1.437       .  A
C17        C1382   1.505       .  S
C18        C1366   1.501       .  S
C19          C20   1.414       .  A
C19          C24   1.413       .  A
C19        C1305   1.473       .  S
C20          C21   1.437       .  A
C20        C1561   1.533       .  S
C21          C22   1.456       .  A
C21        C1254   1.536       .  S
C22          C23   1.417       .  A
C22        C1270   1.488       .  S
C23          C24   1.401       .  A
C23        C1385   1.502       .  S
C24        C1289   1.482       .  S
C25          C26   1.411       .  A
C25          C30   1.417       .  A
C25        C1206   1.499       .  S
C26          C27   1.418       .  A
C26        C1238   1.502       .  S
C27          C28   1.430       .  A
C27        C1174   1.477       .  S
C28          C29   1.417       .  A
C28        C1158   1.515       .  S
C29          C30   1.417       .  A
C29        C1222   1.498       .  S
C30        C1190   1.480       .  S
C31          C32   1.438       .  A
C31          C36   1.461       .  A
C31        C1126   1.536       .  S
C32          C33   1.426       .  A
C32        C1241   1.558       .  S
C33          C34   1.448       .  A
C33        C1094   1.534       .  S
C34          C35   1.443       .  A
C34        C1078   1.494       .  S
C35          C36   1.435       .  A
C35        C1145   1.555       .  S
C36        C1113   1.515       .  S
C37          C38   1.425       .  A
C37          C42   1.428       .  A
C37        C1033   1.485       .  S
C38          C39   1.426       .  A
C38        C1225   1.535       .  S
C39          C40   1.453       .  A
C39         C998   1.496       .  S
C40          C41   1.433       .  A
C40        C1017   1.542       .  S
C41          C42   1.414       .  A
C41        C1062   1.534       .  S
C42        C1049   1.496       .  S
C43          C44   1.416       .  A
C43          C48   1.423       .  A
C43         C969   1.500       .  S
C44          C45   1.415       .  A
C44        C1142   1.505       .  S
C45          C46   1.424       .  A
C45         C937   1.488       .  S
C46          C47   1.416       .  A
C46         C950   1.489       .  S
C47          C48   1.420       .  A
C47        C1065   1.510       .  S
C48         C982   1.479       .  S
C49          C50   1.419       .  A
C49          C54   1.422       .  A
C49         C873   1.484       .  S
C50          C51   1.421       .  A
C50         C921   1.513       .  S
C51          C52   1.428       .  A
C51         C841   1.485       .  S
C52          C53   1.415       .  A
C52         C857   1.498       .  S
C53          C54   1.405       .  A
C53         C902   1.509       .  S
C54         C886   1.483       .  S
C55          C56   1.417       .  A
C55          C60   1.421       .  A
C55         C777   1.496       .  S
C56          C57   1.424       .  A
C56         C905   1.499       .  S
C57          C58   1.428       .  A
C57         C806   1.490       .  S
C58          C59   1.417       .  A
C58         C793   1.502       .  S
C59          C60   1.417       .  A
C59         C822   1.513       .  S
C60         C758   1.488       .  S
C61          C62   1.417       .  A
C61          C66   1.417       .  A
C61         C678   1.477       .  S
C62          C63   1.421       .  A
C62         C825   1.512       .  S
C63          C64   1.430       .  A
C63         C710   1.497       .  S
C64          C65   1.420       .  A
C64         C729   1.497       .  S
C65          C66   1.410       .  A
C65         C745   1.509       .  S
C66         C697   1.491       .  S
C67          C68   1.422       .  A
C67          C72   1.459       .  A
C67         C649   1.495       .  S
C68          C69   1.404       .  A
C68         C918   1.510       .  S
C69          C70   1.413       .  A
C69         C614   1.488       .  S
C70          C71   1.420       .  A
C70         C630   1.482       .  S
C71          C72   1.442       .  A
C71         C742   1.528       .  S
C72         C662   1.543       .  S
N73          N74   1.327       .  A
N73          N79   1.316       .  A
N73        Mn102   2.209       .  S
N74          C81   1.357       .  A
N75          N77   1.317       .  A
N75          N76   1.310       .  A
N75         Mn91   2.170       .  S
N76          C82   1.343       .  A
N77          N78   1.328       .  A
N77        Mn102   2.231       .  S
N78          C82   1.360       .  A
N79          N80   1.311       .  A
N79         Mn91   2.189       .  S
N80          C81   1.346       .  A
C81         C498   1.463       .  S
C82         C251   1.462       .  S
N83          N89   1.313       .  A
N83          N84   1.320       .  A
N83        Mn113   2.187       .  S
N84          C92   1.350       .  A
N85          N86   1.320       .  A
N85          N87   1.315       .  A
N85         Mn91   2.184       .  S
N86          C93   1.348       .  A
N87          N88   1.321       .  A
N87        Mn113   2.201       .  S
N88          C93   1.352       .  A
N89          N90   1.322       .  A
N89         Mn91   2.205       .  S
N90          C92   1.353       .  A
Mn91       Cl115   2.483       .  S
C92         C966   1.472       .  S
C93        C1497   1.470       .  S
N94          N95   1.326       .  A
N94         N100   1.316       .  A
N94        Mn102   2.207   1_545  S
N95         C103   1.357       .  A
N96          N98   1.317       .  A
N96          N97   1.311       .  A
N96        Mn114   2.180       .  S
N97         C104   1.344       .  A
N98          N99   1.328       .  A
N98        Mn102   2.228   1_545  S
N99         C104   1.359       .  A
N100        N101   1.309       .  A
N100       Mn114   2.176       .  S
N101        C103   1.343       .  A
Mn102      Cl115   2.600       .  S
C103        C374   1.455       .  S
C104        C126   1.464       .  S
N105        N106   1.320       .  A
N105        N111   1.312       .  A
N105       Mn113   2.189   1_545  S
N106        C116   1.350       .  A
N107        N108   1.320       .  A
N107        N109   1.314       .  A
N107       Mn114   2.194       .  S
N108        C117   1.349       .  A
N109        N110   1.323       .  A
N109       Mn113   2.205   1_545  S
N110        C117   1.355       .  A
N111        N112   1.322       .  A
N111       Mn114   2.201       .  S
N112        C116   1.353       .  A
Mn113      Cl115   2.580       .  S
Mn114      Cl115   2.482   1_545  S
C116       C1398   1.472       .  S
C117       C1110   1.481       .  S
N118        N119   1.327       .  A
N118        N124   1.318       .  A
N118       Mn147   2.214       .  S
N119        C126   1.356       .  A
N120        N122   1.316       .  A
N120        N121   1.310       .  A
N120       Mn136   2.186       .  S
N121        C127   1.346       .  A
N122        N123   1.328       .  A
N122       Mn147   2.213       .  S
N123        C127   1.357       .  A
N124        N125   1.312       .  A
N124       Mn136   2.193       .  S
N125        C126   1.347       .  A
C127        C373   1.461       .  S
N128        N134   1.314       .  A
N128        N129   1.321       .  A
N128       Mn158   2.200       .  S
N129        C137   1.351       .  A
N130        N131   1.321       .  A
N130        N132   1.314       .  A
N130       Mn136   2.198       .  S
N131        C138   1.351       .  A
N132        N133   1.320       .  A
N132       Mn158   2.197       .  S
N133        C138   1.352       .  A
N134        N135   1.321       .  A
N134       Mn136   2.200       .  S
N135        C137   1.351       .  A
Mn136      Cl160   2.497       .  S
C137        C870   1.472       .  S
C138       C1414   1.471       .  S
N139        N140   1.327       .  A
N139        N145   1.317       .  A
N139       Mn147   2.211   1_655  S
N140        C148   1.356       .  A
N141        N143   1.317       .  A
N141        N142   1.312       .  A
N141       Mn159   2.184       .  S
N142        C149   1.345       .  A
N143        N144   1.327       .  A
N143       Mn147   2.219   1_655  S
N144        C149   1.357       .  A
N145        N146   1.313       .  A
N145       Mn159   2.195       .  S
N146        C148   1.348       .  A
Mn147      Cl160   2.595       .  S
C148        C477   1.464       .  S
C149        C531   1.462       .  S
N150        N151   1.324       .  A
N150        N156   1.314       .  A
N150       Mn158   2.203   1_655  S
N151        C161   1.353       .  A
N152        N153   1.324       .  A
N152        N154   1.314       .  A
N152       Mn159   2.210       .  S
N153        C162   1.354       .  A
N154        N155   1.320       .  A
N154       Mn158   2.191   1_655  S
N155        C162   1.350       .  A
N156        N157   1.323       .  A
N156       Mn159   2.216       .  S
N157        C161   1.354       .  A
Mn158      Cl160   2.575       .  S
Mn159      Cl160   2.492   1_655  S
C161       C1321   1.486       .  S
C162        C646   1.480       .  S
N163        N164   1.328       .  A
N163        N169   1.316       .  A
N163       Mn192   2.213       .  S
N164        C171   1.357       .  A
N165        N167   1.316       .  A
N165        N166   1.309       .  A
N165       Mn181   2.167       .  S
N166        C172   1.342       .  A
N167        N168   1.327       .  A
N167       Mn192   2.224       .  S
N168        C172   1.359       .  A
N169        N170   1.311       .  A
N169       Mn181   2.188       .  S
N170        C171   1.346       .  A
C171        C318   1.463       .  S
C172        C227   1.457       .  S
N173        N179   1.313       .  A
N173        N174   1.320       .  A
N173       Mn203   2.190       .  S
N174        C182   1.351       .  A
N175        N176   1.319       .  A
N175        N177   1.314       .  A
N175       Mn181   2.181       .  S
N176        C183   1.347       .  A
N177        N178   1.322       .  A
N177       Mn203   2.206       .  S
N178        C183   1.353       .  A
N179        N180   1.322       .  A
N179       Mn181   2.199       .  S
N180        C182   1.352       .  A
Mn181      Cl205   2.490       .  S
C182        C761   1.470       .  S
C183       C1513   1.467       .  S
N184        N185   1.327       .  A
N184        N190   1.317       .  A
N184       Mn192   2.212   1_655  S
N185        C193   1.356       .  A
N186        N188   1.317       .  A
N186        N187   1.312       .  A
N186       Mn204   2.184       .  S
N187        C194   1.345       .  A
N188        N189   1.328       .  A
N188       Mn192   2.226   1_655  S
N189        C194   1.359       .  A
N190        N191   1.311       .  A
N190       Mn204   2.185       .  S
N191        C193   1.346       .  A
Mn192      Cl205   2.598       .  S
C193        C577   1.461       .  S
C194        C431   1.465       .  S
N195        N196   1.319       .  A
N195        N201   1.313       .  A
N195       Mn203   2.186   1_655  S
N196        C206   1.349       .  A
N197        N198   1.320       .  A
N197        N199   1.314       .  A
N197       Mn204   2.194       .  S
N198        C207   1.349       .  A
N199        N200   1.322       .  A
N199       Mn203   2.206   1_655  S
N200        C207   1.354       .  A
N201        N202   1.321       .  A
N201       Mn204   2.195       .  S
N202        C206   1.351       .  A
Mn203      Cl205   2.573       .  S
Mn204      Cl205   2.492   1_655  S
C206       C1302   1.464       .  S
C207        C681   1.471       .  S
N208        N209   1.319       .  A
N208        N214   1.314       .  A
N208       Mn237   2.195   1_554  S
N209        C216   1.352       .  A
N210        N212   1.315       .  A
N210        N211   1.321       .  A
N210       Mn226   2.196       .  S
N211        C217   1.350       .  A
N212        N213   1.323       .  A
N212       Mn237   2.222   1_554  S
N213        C217   1.356       .  A
N214        N215   1.323       .  A
N214       Mn226   2.209       .  S
N215        C216   1.354       .  A
C216       C1046   1.478       .  S
C217        C774   1.480       .  S
N218        N224   1.316       .  A
N218        N219   1.325       .  A
N218       Mn248   2.194   1_554  S
N219        C227   1.354       .  A
N220        N221   1.311       .  A
N220        N222   1.317       .  A
N220       Mn226   2.189       .  S
N221        C228   1.347       .  A
N222        N223   1.327       .  A
N222       Mn248   2.210   1_554  S
N223        C228   1.356       .  A
N224        N225   1.312       .  A
N224       Mn226   2.194       .  S
N225        C227   1.348       .  A
Mn226      Cl250   2.499   1_554  S
C228        C317   1.460       .  S
N229        N230   1.319       .  A
N229        N235   1.314       .  A
N229       Mn237   2.196       .  S
N230        C238   1.352       .  A
N231        N233   1.315       .  A
N231        N232   1.320       .  A
N231       Mn249   2.186       .  S
N232        C239   1.348       .  A
N233        N234   1.323       .  A
N233       Mn237   2.221       .  S
N234        C239   1.356       .  A
N235        N236   1.323       .  A
N235       Mn249   2.207       .  S
N236        C238   1.354       .  A
Mn237      Cl250   2.574       .  S
C238        C854   1.479       .  S
C239        C985   1.473       .  S
N240        N241   1.326       .  A
N240        N246   1.316       .  A
N240       Mn248   2.198       .  S
N241        C251   1.355       .  A
N242        N243   1.311       .  A
N242        N244   1.316       .  A
N242       Mn249   2.184       .  S
N243        C252   1.346       .  A
N244        N245   1.327       .  A
N244       Mn248   2.210       .  S
N245        C252   1.356       .  A
N246        N247   1.312       .  A
N246       Mn249   2.198       .  S
N247        C251   1.348       .  A
Mn248      Cl250   2.595       .  S
Mn249      Cl250   2.500       .  S
C252        C497   1.459       .  S
N253        N254   1.322       .  A
N253        N259   1.313       .  A
N253       Mn282   2.201       .  S
N254        C261   1.353       .  A
N255        N257   1.314       .  A
N255        N256   1.321       .  A
N255       Mn271   2.194       .  S
N256        C262   1.350       .  A
N257        N258   1.323       .  A
N257       Mn282   2.209       .  S
N258        C262   1.354       .  A
N259        N260   1.320       .  A
N259       Mn271   2.197       .  S
N260        C261   1.351       .  A
C261       C1430   1.472       .  S
C262        C790   1.480       .  S
N263        N269   1.316       .  A
N263        N264   1.328       .  A
N263       Mn293   2.222       .  S
N264        C272   1.359       .  A
N265        N266   1.312       .  A
N265        N267   1.318       .  A
N265       Mn271   2.190       .  S
N266        C273   1.347       .  A
N267        N268   1.326       .  A
N267       Mn293   2.216       .  S
N268        C273   1.356       .  A
N269        N270   1.310       .  A
N269       Mn271   2.174       .  S
N270        C272   1.343       .  A
Mn271      Cl295   2.489       .  S
C272        C352   1.462       .  S
C273        C341   1.462       .  S
N274        N275   1.321       .  A
N274        N280   1.314       .  A
N274       Mn282   2.197   1_655  S
N275        C283   1.351       .  A
N276        N278   1.315       .  A
N276        N277   1.322       .  A
N276       Mn294   2.215       .  S
N277        C284   1.354       .  A
N278        N279   1.325       .  A
N278       Mn282   2.214   1_655  S
N279        C284   1.356       .  A
N280        N281   1.322       .  A
N280       Mn294   2.201       .  S
N281        C283   1.352       .  A
Mn282      Cl295   2.585       .  S
C283        C713   1.479       .  S
C284       C1353   1.489       .  S
N285        N286   1.329       .  A
N285        N291   1.317       .  A
N285       Mn293   2.223   1_655  S
N286        C296   1.358       .  A
N287        N288   1.312       .  A
N287        N289   1.317       .  A
N287       Mn294   2.193       .  S
N288        C297   1.347       .  A
N289        N290   1.328       .  A
N289       Mn293   2.217   1_655  S
N290        C297   1.357       .  A
N291        N292   1.312       .  A
N291       Mn294   2.188       .  S
N292        C296   1.346       .  A
Mn293      Cl295   2.601       .  S
Mn294      Cl295   2.489   1_655  S
C296        C408   1.466       .  S
C297        C452   1.466       .  S
N298        N299   1.321       .  A
N298        N304   1.314       .  A
N298       Mn327   2.197       .  S
N299        C306   1.351       .  A
N300        N302   1.312       .  A
N300        N301   1.321       .  A
N300       Mn316   2.194       .  S
N301        C307   1.351       .  A
N302        N303   1.320       .  A
N302       Mn327   2.187       .  S
N303        C307   1.350       .  A
N304        N305   1.320       .  A
N304       Mn316   2.186       .  S
N305        C306   1.348       .  A
C306       C1529   1.468       .  S
C307       C1030   1.470       .  S
N308        N314   1.316       .  A
N308        N309   1.328       .  A
N308       Mn338   2.223       .  S
N309        C317   1.359       .  A
N310        N311   1.310       .  A
N310        N312   1.315       .  A
N310       Mn316   2.177       .  S
N311        C318   1.344       .  A
N312        N313   1.329       .  A
N312       Mn338   2.219       .  S
N313        C318   1.359       .  A
N314        N315   1.310       .  A
N314       Mn316   2.174       .  S
N315        C317   1.344       .  A
Mn316      Cl340   2.488       .  S
N319        N320   1.321       .  A
N319        N325   1.314       .  A
N319       Mn327   2.196   1_545  S
N320        C328   1.351       .  A
N321        N323   1.313       .  A
N321        N322   1.321       .  A
N321       Mn339   2.199       .  S
N322        C329   1.353       .  A
N323        N324   1.318       .  A
N323       Mn327   2.183   1_545  S
N324        C329   1.349       .  A
N325        N326   1.320       .  A
N325       Mn339   2.199       .  S
N326        C328   1.351       .  A
Mn327      Cl340   2.577       .  S
C328       C1193   1.469       .  S
C329       C1449   1.467       .  S
N330        N331   1.327       .  A
N330        N336   1.319       .  A
N330       Mn338   2.220   1_545  S
N331        C341   1.357       .  A
N332        N333   1.311       .  A
N332        N334   1.317       .  A
N332       Mn339   2.186       .  S
N333        C342   1.345       .  A
N334        N335   1.327       .  A
N334       Mn338   2.213   1_545  S
N335        C342   1.356       .  A
N336        N337   1.312       .  A
N336       Mn339   2.191       .  S
N337        C341   1.346       .  A
Mn338      Cl340   2.590       .  S
Mn339      Cl340   2.493   1_545  S
C342        C351   1.460       .  S
N343        N344   1.327       .  A
N343        N349   1.316       .  A
N343       Mn372   2.213   1_554  S
N344        C351   1.357       .  A
N345        N347   1.318       .  A
N345        N346   1.313       .  A
N345       Mn361   2.202       .  S
N346        C352   1.349       .  A
N347        N348   1.326       .  A
N347       Mn372   2.208   1_554  S
N348        C352   1.355       .  A
N349        N350   1.311       .  A
N349       Mn361   2.179       .  S
N350        C351   1.345       .  A
N353        N359   1.313       .  A
N353        N354   1.318       .  A
N353       Mn383   2.185   1_554  S
N354        C362   1.350       .  A
N355        N356   1.322       .  A
N355        N357   1.315       .  A
N355       Mn361   2.207       .  S
N356        C363   1.352       .  A
N357        N358   1.323       .  A
N357       Mn383   2.207   1_554  S
N358        C363   1.353       .  A
N359        N360   1.322       .  A
N359       Mn361   2.204       .  S
N360        C362   1.353       .  A
Mn361      Cl385   2.494   1_554  S
C362        C809   1.470       .  S
C363       C1209   1.480       .  S
N364        N365   1.328       .  A
N364        N370   1.316       .  A
N364       Mn372   2.219       .  S
N365        C373   1.359       .  A
N366        N368   1.316       .  A
N366        N367   1.310       .  A
N366       Mn384   2.181       .  S
N367        C374   1.345       .  A
N368        N369   1.326       .  A
N368       Mn372   2.205       .  S
N369        C374   1.356       .  A
N370        N371   1.309       .  A
N370       Mn384   2.175       .  S
N371        C373   1.343       .  A
Mn372      Cl385   2.590       .  S
N375        N376   1.313       .  A
N375        N381   1.311       .  A
N375       Mn383   2.180       .  S
N376        C386   1.351       .  A
N377        N378   1.319       .  A
N377        N379   1.314       .  A
N377       Mn384   2.192       .  S
N378        C387   1.349       .  A
N379        N380   1.321       .  A
N379       Mn383   2.197       .  S
N380        C387   1.351       .  A
N381        N382   1.324       .  A
N381       Mn384   2.188       .  S
N382        C386   1.353       .  A
Mn383      Cl385   2.574       .  S
Mn384      Cl385   2.493       .  S
C386       C1129   1.477       .  S
C387        C889   1.469       .  S
N388        N389   1.320       .  A
N388        N394   1.314       .  A
N388       Mn417   2.191   1_545  S
N389        C396   1.351       .  A
N390        N392   1.314       .  A
N390        N391   1.321       .  A
N390       Mn406   2.204       .  S
N391        C397   1.353       .  A
N392        N393   1.324       .  A
N392       Mn417   2.211   1_545  S
N393        C397   1.355       .  A
N394        N395   1.323       .  A
N394       Mn406   2.217       .  S
N395        C396   1.355       .  A
C396       C1369   1.478       .  S
C397       C1161   1.492       .  S
N398        N404   1.318       .  A
N398        N399   1.326       .  A
N398       Mn428   2.211   1_545  S
N399        C407   1.355       .  A
N400        N401   1.311       .  A
N400        N402   1.318       .  A
N400       Mn406   2.186       .  S
N401        C408   1.345       .  A
N402        N403   1.329       .  A
N402       Mn428   2.228   1_545  S
N403        C408   1.358       .  A
N404        N405   1.314       .  A
N404       Mn406   2.202       .  S
N405        C407   1.348       .  A
Mn406      Cl430   2.499   1_545  S
C407        C453   1.464       .  S
N409        N410   1.319       .  A
N409        N415   1.314       .  A
N409       Mn417   2.183       .  S
N410        C418   1.349       .  A
N411        N413   1.313       .  A
N411        N412   1.318       .  A
N411       Mn429   2.178       .  S
N412        C419   1.347       .  A
N413        N414   1.321       .  A
N413       Mn417   2.204       .  S
N414        C419   1.353       .  A
N415        N416   1.320       .  A
N415       Mn429   2.194       .  S
N416        C418   1.351       .  A
Mn417      Cl430   2.576       .  S
C418       C1001   1.469       .  S
C419       C1286   1.465       .  S
N420        N421   1.327       .  A
N420        N426   1.317       .  A
N420       Mn428   2.215       .  S
N421        C431   1.357       .  A
N422        N423   1.310       .  A
N422        N424   1.316       .  A
N422       Mn429   2.165       .  S
N423        C432   1.342       .  A
N424        N425   1.329       .  A
N424       Mn428   2.233       .  S
N425        C432   1.361       .  A
N426        N427   1.313       .  A
N426       Mn429   2.196       .  S
N427        C431   1.348       .  A
Mn428      Cl430   2.596       .  S
Mn429      Cl430   2.493       .  S
C432        C576   1.464       .  S
N433        N434   1.318       .  A
N433        N439   1.313       .  A
N433       Mn462   2.179   1_554  S
N434        C441   1.349       .  A
N435        N437   1.314       .  A
N435        N436   1.321       .  A
N435       Mn451   2.196       .  S
N436        C442   1.351       .  A
N437        N438   1.320       .  A
N437       Mn462   2.194   1_554  S
N438        C442   1.351       .  A
N439        N440   1.320       .  A
N439       Mn451   2.195       .  S
N440        C441   1.350       .  A
C441       C1177   1.461       .  S
C442        C726   1.470       .  S
N443        N449   1.318       .  A
N443        N444   1.328       .  A
N443       Mn473   2.225       .  S
N444        C452   1.358       .  A
N445        N446   1.313       .  A
N445        N447   1.318       .  A
N445       Mn451   2.186       .  S
N446        C453   1.345       .  A
N447        N448   1.327       .  A
N447       Mn473   2.225       .  S
N448        C453   1.358       .  A
N449        N450   1.312       .  A
N449       Mn451   2.186       .  S
N450        C452   1.345       .  A
Mn451      Cl475   2.498       .  S
N454        N455   1.316       .  A
N454        N460   1.311       .  A
N454       Mn462   2.180       .  S
N455        C463   1.353       .  A
N456        N458   1.312       .  A
N456        N457   1.320       .  A
N456       Mn474   2.196       .  S
N457        C464   1.354       .  A
N458        N459   1.321       .  A
N458       Mn462   2.195       .  S
N459        C464   1.354       .  A
N460        N461   1.320       .  A
N460       Mn474   2.187       .  S
N461        C463   1.352       .  A
Mn462      Cl475   2.570   1_556  S
C463        C665   1.483       .  S
C464       C1097   1.487       .  S
N465        N466   1.329       .  A
N465        N471   1.317       .  A
N465       Mn473   2.224   1_556  S
N466        C476   1.359       .  A
N467        N468   1.311       .  A
N467        N469   1.317       .  A
N467       Mn474   2.180       .  S
N468        C477   1.344       .  A
N469        N470   1.329       .  A
N469       Mn473   2.227   1_556  S
N470        C477   1.360       .  A
N471        N472   1.309       .  A
N471       Mn474   2.175       .  S
N472        C476   1.343       .  A
Mn473      Cl475   2.597       .  S
Mn474      Cl475   2.492   1_556  S
C476        C532   1.462       .  S
N478        N479   1.319       .  A
N478        N484   1.313       .  A
N478       Mn507   2.185       .  S
N479        C486   1.349       .  A
N480        N482   1.312       .  A
N480        N481   1.320       .  A
N480       Mn496   2.186       .  S
N481        C487   1.350       .  A
N482        N483   1.318       .  A
N482       Mn507   2.181       .  S
N483        C487   1.350       .  A
N484        N485   1.319       .  A
N484       Mn496   2.190       .  S
N485        C486   1.349       .  A
C486       C1481   1.463       .  S
C487        C838   1.467       .  S
N488        N494   1.316       .  A
N488        N489   1.328       .  A
N488       Mn518   2.217       .  S
N489        C497   1.358       .  A
N490        N491   1.311       .  A
N490        N492   1.316       .  A
N490       Mn496   2.181       .  S
N491        C498   1.345       .  A
N492        N493   1.328       .  A
N492       Mn518   2.220       .  S
N493        C498   1.358       .  A
N494        N495   1.310       .  A
N494       Mn496   2.176       .  S
N495        C497   1.344       .  A
Mn496      Cl520   2.486       .  S
N499        N500   1.320       .  A
N499        N505   1.313       .  A
N499       Mn507   2.190   1_655  S
N500        C508   1.350       .  A
N501        N503   1.311       .  A
N501        N502   1.316       .  A
N501       Mn519   2.184       .  S
N502        C509   1.351       .  A
N503        N504   1.318       .  A
N503       Mn507   2.178   1_655  S
N504        C509   1.353       .  A
N505        N506   1.320       .  A
N505       Mn519   2.201       .  S
N506        C508   1.352       .  A
Mn507      Cl520   2.581       .  S
C508        C617   1.468       .  S
C509       C1257   1.480       .  S
N510        N511   1.327       .  A
N510        N516   1.318       .  A
N510       Mn518   2.215   1_655  S
N511        C521   1.357       .  A
N512        N513   1.309       .  A
N512        N514   1.316       .  A
N512       Mn519   2.171       .  S
N513        C522   1.343       .  A
N514        N515   1.327       .  A
N514       Mn518   2.218   1_655  S
N515        C522   1.358       .  A
N516        N517   1.313       .  A
N516       Mn519   2.198       .  S
N517        C521   1.348       .  A
Mn518      Cl520   2.592       .  S
Mn519      Cl520   2.485   1_655  S
C521        C554   1.465       .  S
C522        C598   1.456       .  S
N523        N524   1.326       .  A
N523        N529   1.319       .  A
N523       Mn552   2.218   1_545  S
N524        C531   1.356       .  A
N525        N527   1.316       .  A
N525        N526   1.311       .  A
N525       Mn541   2.187       .  S
N526        C532   1.346       .  A
N527        N528   1.328       .  A
N527       Mn552   2.212   1_545  S
N528        C532   1.357       .  A
N529        N530   1.313       .  A
N529       Mn541   2.196       .  S
N530        C531   1.347       .  A
N533        N539   1.313       .  A
N533        N534   1.318       .  A
N533       Mn563   2.182   1_545  S
N534        C542   1.348       .  A
N535        N536   1.326       .  A
N535        N537   1.314       .  A
N535       Mn541   2.222       .  S
N536        C543   1.356       .  A
N537        N538   1.322       .  A
N537       Mn563   2.206   1_545  S
N538        C543   1.355       .  A
N539        N540   1.325       .  A
N539       Mn541   2.211       .  S
N540        C542   1.355       .  A
Mn541      Cl565   2.495   1_545  S
C542       C1081   1.477       .  S
C543       C1337   1.488       .  S
N544        N545   1.327       .  A
N544        N550   1.316       .  A
N544       Mn552   2.212       .  S
N545        C553   1.357       .  A
N546        N548   1.317       .  A
N546        N547   1.312       .  A
N546       Mn564   2.183       .  S
N547        C554   1.345       .  A
N548        N549   1.328       .  A
N548       Mn552   2.223       .  S
N549        C554   1.358       .  A
N550        N551   1.311       .  A
N550       Mn564   2.186       .  S
N551        C553   1.346       .  A
Mn552      Cl565   2.590       .  S
C553        C599   1.461       .  S
N555        N556   1.319       .  A
N555        N561   1.314       .  A
N555       Mn563   2.185       .  S
N556        C566   1.350       .  A
N557        N558   1.321       .  A
N557        N559   1.313       .  A
N557       Mn564   2.192       .  S
N558        C567   1.350       .  A
N559        N560   1.321       .  A
N559       Mn563   2.199       .  S
N560        C567   1.351       .  A
N561        N562   1.319       .  A
N561       Mn564   2.192       .  S
N562        C566   1.350       .  A
Mn563      Cl565   2.579       .  S
Mn564      Cl565   2.494       .  S
C566       C1273   1.464       .  S
C567        C934   1.471       .  S
N568        N569   1.326       .  A
N568        N574   1.318       .  A
N568       Mn597   2.202   1_554  S
N569        C576   1.354       .  A
N570        N572   1.315       .  A
N570        N571   1.310       .  A
N570       Mn586   2.176       .  S
N571        C577   1.345       .  A
N572        N573   1.327       .  A
N572       Mn597   2.216   1_554  S
N573        C577   1.358       .  A
N574        N575   1.313       .  A
N574       Mn586   2.206       .  S
N575        C576   1.350       .  A
N578        N584   1.315       .  A
N578        N579   1.323       .  A
N578       Mn608   2.206   1_554  S
N579        C587   1.354       .  A
N580        N581   1.318       .  A
N580        N582   1.312       .  A
N580       Mn586   2.191       .  S
N581        C588   1.352       .  A
N582        N583   1.321       .  A
N582       Mn608   2.195   1_554  S
N583        C588   1.355       .  A
N584        N585   1.321       .  A
N584       Mn586   2.204       .  S
N585        C587   1.351       .  A
Mn586      Cl610   2.489   1_554  S
C587        C694   1.477       .  S
C588       C1014   1.489       .  S
N589        N590   1.325       .  A
N589        N595   1.316       .  A
N589       Mn597   2.198       .  S
N590        C598   1.354       .  A
N591        N593   1.316       .  A
N591        N592   1.310       .  A
N591       Mn609   2.174       .  S
N592        C599   1.344       .  A
N593        N594   1.328       .  A
N593       Mn597   2.218       .  S
N594        C599   1.358       .  A
N595        N596   1.311       .  A
N595       Mn609   2.193       .  S
N596        C598   1.347       .  A
Mn597      Cl610   2.594       .  S
N600        N601   1.321       .  A
N600        N606   1.314       .  A
N600       Mn608   2.197       .  S
N601        C611   1.351       .  A
N602        N603   1.320       .  A
N602        N604   1.313       .  A
N602       Mn609   2.186       .  S
N603        C612   1.349       .  A
N604        N605   1.321       .  A
N604       Mn608   2.199       .  S
N605        C612   1.353       .  A
N606        N607   1.322       .  A
N606       Mn609   2.203       .  S
N607        C611   1.352       .  A
Mn608      Cl610   2.583       .  S
Mn609      Cl610   2.488       .  S
C611        C953   1.474       .  S
C612        C633   1.468       .  S
C613        C614   1.403       .  A
C613        C618   1.401       .  A
C613        H620   1.079       .  S
C614        C615   1.417       .  A
C615        C616   1.402       .  A
C615        C622   1.507       .  S
C616        C617   1.397       .  A
C616        H621   1.084       .  S
C617        C618   1.410       .  A
C618        C619   1.506       .  S
C619        H623   1.111       .  S
C619        H624   1.110       .  S
C619        H625   1.110   1_655  S
C622        H626   1.110       .  S
C622        H627   1.106       .  S
C622        H628   1.110       .  S
C629        C630   1.402       .  A
C629        C634   1.401       .  A
C629        H636   1.083       .  S
C630        C631   1.420       .  A
C631        C632   1.402       .  A
C631        C638   1.507       .  S
C632        C633   1.397       .  A
C632        H637   1.084       .  S
C633        C634   1.410       .  A
C634        C635   1.505       .  S
C635        H639   1.111       .  S
C635        H640   1.106       .  S
C635        H641   1.110       .  S
C638        H642   1.110       .  S
C638        H643   1.107       .  S
C638        H644   1.110       .  S
C645        C646   1.405       .  A
C645        C650   1.409       .  A
C645        H652   1.084       .  S
C646        C647   1.409       .  A
C647        C648   1.401       .  A
C647        C654   1.507       .  S
C648        C649   1.408       .  A
C648        H653   1.083       .  S
C649        C650   1.418       .  A
C650        C651   1.503       .  S
C651        H655   1.110       .  S
C651        H656   1.110       .  S
C651        H657   1.102       .  S
C654        H658   1.110       .  S
C654        H659   1.110       .  S
C654        H660   1.111       .  S
C661        C662   1.413       .  A
C661        C666   1.406       .  A
C661        H668   1.069       .  S
C662        C663   1.422       .  A
C663        C664   1.397       .  A
C663        C670   1.494       .  S
C664        C665   1.397       .  A
C664        H669   1.085       .  S
C665        C666   1.412       .  A
C666        C667   1.508       .  S
C667        H671   1.111       .  S
C667        H672   1.110       .  S
C667        H673   1.110       .  S
C670        H674   1.112       .  S
C670        H675   1.098       .  S
C670        H676   1.105       .  S
C677        C678   1.405       .  A
C677        C682   1.403       .  A
C677        H684   1.083       .  S
C678        C679   1.408       .  A
C679        C680   1.401       .  A
C679        C686   1.505       .  S
C680        C681   1.401       .  A
C680        H685   1.076       .  S
C681        C682   1.407       .  A
C682        C683   1.505       .  S
C683        H687   1.111       .  S
C683        H688   1.110       .  S
C683        H689   1.110       .  S
C686        H690   1.108       .  S
C686        H691   1.102   1_655  S
C686        H692   1.110       .  S
C693        C694   1.398       .  A
C693        C698   1.405       .  A
C693        H700   1.084       .  S
C694        C695   1.413       .  A
C695        C696   1.405       .  A
C695        C702   1.504       .  S
C696        C697   1.401       .  A
C696        H701   1.082       .  S
C697        C698   1.417       .  A
C698        C699   1.506       .  S
C699        H703   1.111       .  S
C699        H704   1.109       .  S
C699        H705   1.109       .  S
C702        H706   1.110       .  S
C702        H707   1.104       .  S
C702        H708   1.111       .  S
C709        C710   1.406       .  A
C709        C714   1.407       .  A
C709        H716   1.084       .  S
C710        C711   1.422       .  A
C711        C712   1.402       .  A
C711        C718   1.508       .  S
C712        C713   1.397       .  A
C712        H717   1.085       .  S
C713        C714   1.414       .  A
C714        C715   1.507       .  S
C715        H719   1.110       .  S
C715        H720   1.110       .  S
C715        H721   1.111       .  S
C718        H722   1.110       .  S
C718        H723   1.104       .  S
C718        H724   1.110       .  S
C725        C726   1.397       .  A
C725        C730   1.404       .  A
C725        H732   1.085       .  S
C726        C727   1.409       .  A
C727        C728   1.401       .  A
C727        C734   1.508       .  S
C728        C729   1.405       .  A
C728        H733   1.074       .  S
C729        C730   1.422       .  A
C730        C731   1.506       .  S
C731        H735   1.110       .  S
C731        H736   1.104       .  S
C731        H737   1.110       .  S
C734        H738   1.107   1_554  S
C734        H739   1.110       .  S
C734        H740   1.111   1_554  S
C741        C742   1.404       .  A
C741        C746   1.405   1_556  A
C741        H748   1.074       .  S
C742        C743   1.435       .  A
C743        C744   1.414   1_556  A
C743        C750   1.503       .  S
C744        C745   1.402       .  A
C744        H749   1.080       .  S
C745        C746   1.415       .  A
C746        C747   1.507       .  S
C747        H751   1.110       .  S
C747        H752   1.104       .  S
C747        H753   1.110       .  S
C750        H754   1.111       .  S
C750        H755   1.089       .  S
C750        H756   1.111       .  S
C757        C758   1.399       .  A
C757        C762   1.403       .  A
C757        H764   1.076       .  S
C758        C759   1.419       .  A
C759        C760   1.404       .  A
C759        C766   1.505       .  S
C760        C761   1.397       .  A
C760        H765   1.084       .  S
C761        C762   1.408       .  A
C762        C763   1.505       .  S
C763        H767   1.111       .  S
C763        H768   1.111       .  S
C763        H769   1.108       .  S
C766        H770   1.110       .  S
C766        H771   1.106       .  S
C766        H772   1.110       .  S
C773        C774   1.401       .  A
C773        C778   1.405       .  A
C773        H780   1.085       .  S
C774        C775   1.409       .  A
C775        C776   1.407       .  A
C775        C782   1.505       .  S
C776        C777   1.406       .  A
C776        H781   1.084       .  S
C777        C778   1.418       .  A
C778        C779   1.507       .  S
C779        H783   1.110       .  S
C779        H784   1.104       .  S
C779        H785   1.108       .  S
C782        H786   1.111       .  S
C782        H787   1.110       .  S
C782        H788   1.111       .  S
C789        C790   1.396       .  A
C789        C794   1.403       .  A
C789        H796   1.084       .  S
C790        C791   1.416       .  A
C791        C792   1.408       .  A
C791        C798   1.507       .  S
C792        C793   1.405       .  A
C792        H797   1.082       .  S
C793        C794   1.420       .  A
C794        C795   1.504       .  S
C795        H799   1.111       .  S
C795        H800   1.106       .  S
C795        H801   1.108       .  S
C798        H802   1.110       .  S
C798        H803   1.109       .  S
C798        H804   1.111       .  S
C805        C806   1.407       .  A
C805        C810   1.405       .  A
C805        H812   1.084       .  S
C806        C807   1.420       .  A
C807        C808   1.399       .  A
C807        C814   1.502       .  S
C808        C809   1.397       .  A
C808        H813   1.084       .  S
C809        C810   1.407       .  A
C810        C811   1.505       .  S
C811        H815   1.111       .  S
C811        H816   1.110       .  S
C811        H817   1.110       .  S
C814        H818   1.109       .  S
C814        H819   1.095       .  S
C814        H820   1.111       .  S
C821        C822   1.411       .  A
C821        C826   1.422   1_455  A
C821        H828   1.083       .  S
C822        C823   1.422       .  A
C823        C824   1.392   1_455  A
C823        C830   1.503       .  S
C824        C825   1.395       .  A
C824        H829   1.077       .  S
C825        C826   1.423       .  A
C826        C827   1.501       .  S
C827        H831   1.110       .  S
C827        H832   1.110       .  S
C827        H833   1.103       .  S
C830        H834   1.110       .  S
C830        H835   1.088       .  S
C830        H836   1.111       .  S
C837        C838   1.396       .  A
C837        C842   1.396       .  A
C837        H844   1.085       .  S
C838        C839   1.413       .  A
C839        C840   1.402       .  A
C839        C846   1.508       .  S
C840        C841   1.404       .  A
C840        H845   1.084       .  S
C841        C842   1.419       .  A
C842        C843   1.507       .  S
C843        H847   1.109       .  S
C843        H848   1.105       .  S
C843        H849   1.110       .  S
C846        H850   1.109       .  S
C846        H851   1.110       .  S
C846        H852   1.111       .  S
C853        C854   1.399       .  A
C853        C858   1.409       .  A
C853        H860   1.084       .  S
C854        C855   1.408       .  A
C855        C856   1.399       .  A
C855        C862   1.496       .  S
C856        C857   1.398       .  A
C856        H861   1.078       .  S
C857        C858   1.423       .  A
C858        C859   1.504       .  S
C859        H863   1.110       .  S
C859        H864   1.110       .  S
C859        H865   1.105       .  S
C862        H866   1.110       .  S
C862        H867   1.108       .  S
C862        H868   1.101   1_556  S
C869        C870   1.404       .  A
C869        C874   1.406       .  A
C869        H876   1.085       .  S
C870        C871   1.407       .  A
C871        C872   1.401       .  A
C871        C878   1.506       .  S
C872        C873   1.405       .  A
C872        H877   1.083       .  S
C873        C874   1.413       .  A
C874        C875   1.505       .  S
C875        H879   1.110       .  S
C875        H880   1.109       .  S
C875        H881   1.108       .  S
C878        H882   1.110       .  S
C878        H883   1.110       .  S
C878        H884   1.111       .  S
C885        C886   1.401       .  A
C885        C890   1.404       .  A
C885        H892   1.083       .  S
C886        C887   1.418       .  A
C887        C888   1.400       .  A
C887        C894   1.510       .  S
C888        C889   1.397       .  A
C888        H893   1.084       .  S
C889        C890   1.413       .  A
C890        C891   1.507       .  S
C891        H895   1.111       .  S
C891        H896   1.110       .  S
C891        H897   1.110       .  S
C894        H898   1.107       .  S
C894        H899   1.109       .  S
C894        H900   1.111       .  S
C901        C902   1.413       .  A
C901        C906   1.424   1_556  A
C901        H908   1.081       .  S
C902        C903   1.414       .  A
C903        C904   1.390   1_556  A
C903        C910   1.494       .  S
C904        C905   1.395       .  A
C904        H909   1.080       .  S
C905        C906   1.417       .  A
C906        C907   1.503       .  S
C907        H911   1.110       .  S
C907        H912   1.107       .  S
C907        H913   1.109       .  S
C910        H914   1.109       .  S
C910        H915   1.107       .  S
C910        H916   1.111       .  S
C917        C918   1.412       .  A
C917        C922   1.418   1_655  A
C917        H924   1.077       .  S
C918        C919   1.414       .  A
C919        C920   1.396   1_655  A
C919        C926   1.510       .  S
C920        C921   1.398       .  A
C920        H925   1.068       .  S
C921        C922   1.421       .  A
C922        C923   1.501       .  S
C923        H927   1.110       .  S
C923        H928   1.102       .  S
C923        H929   1.110       .  S
C926        H930   1.111       .  S
C926        H931   1.103       .  S
C926        H932   1.104       .  S
C933        C934   1.395       .  A
C933        C938   1.402       .  A
C933        H940   1.084       .  S
C934        C935   1.411       .  A
C935        C936   1.404       .  A
C935        C942   1.503       .  S
C936        C937   1.402       .  A
C936        H941   1.083       .  S
C937        C938   1.419       .  A
C938        C939   1.504       .  S
C939        H943   1.111       .  S
C939        H944   1.099       .  S
C939        H945   1.101       .  S
C942        H946   1.107       .  S
C942        H947   1.110       .  S
C942        H948   1.111       .  S
C949        C950   1.404       .  A
C949        C954   1.401       .  A
C949        H956   1.084       .  S
C950        C951   1.415       .  A
C951        C952   1.406       .  A
C951        C958   1.505       .  S
C952        C953   1.403       .  A
C952        H957   1.084       .  S
C953        C954   1.408       .  A
C954        C955   1.506       .  S
C955        H959   1.111       .  S
C955        H960   1.110       .  S
C955        H961   1.110       .  S
C958        H962   1.111       .  S
C958        H963   1.107       .  S
C958        H964   1.110       .  S
C965        C966   1.398       .  A
C965        C970   1.405       .  A
C965        H972   1.084       .  S
C966        C967   1.410       .  A
C967        C968   1.403       .  A
C967        C974   1.507       .  S
C968        C969   1.403       .  A
C968        H973   1.075       .  S
C969        C970   1.415       .  A
C970        C971   1.499       .  S
C971        H975   1.111       .  S
C971        H976   1.110       .  S
C971        H977   1.107       .  S
C974        H978   1.110       .  S
C974        H979   1.110       .  S
C974        H980   1.111       .  S
C981        C982   1.405       .  A
C981        C986   1.403       .  A
C981        H988   1.084       .  S
C982        C983   1.414       .  A
C983        C984   1.405       .  A
C983        C990   1.512       .  S
C984        C985   1.403       .  A
C984        H989   1.084       .  S
C985        C986   1.407       .  A
C986        C987   1.505       .  S
C987        H991   1.111       .  S
C987        H992   1.110       .  S
C987        H993   1.110       .  S
C990        H994   1.106       .  S
C990        H995   1.106       .  S
C990        H996   1.109       .  S
C997        C998   1.408       .  A
C997       C1002   1.397       .  A
C997       H1004   1.080       .  S
C998        C999   1.421       .  A
C999       C1000   1.403       .  A
C999       C1006   1.504       .  S
C1000      C1001   1.402       .  A
C1000      H1005   1.085       .  S
C1001      C1002   1.407       .  A
C1002      C1003   1.507       .  S
C1003      H1007   1.111       .  S
C1003      H1008   1.110       .  S
C1003      H1009   1.110       .  S
C1006      H1010   1.099       .  S
C1006      H1011   1.111       .  S
C1006      H1012   1.110       .  S
C1013      C1014   1.404       .  A
C1013      C1018   1.407       .  A
C1013      H1020   1.084       .  S
C1014      C1015   1.415       .  A
C1015      C1016   1.402       .  A
C1015      C1022   1.510       .  S
C1016      C1017   1.411       .  A
C1016      H1021   1.069       .  S
C1017      C1018   1.421       .  A
C1018      C1019   1.503       .  S
C1019      H1023   1.109       .  S
C1019      H1024   1.105       .  S
C1019      H1025   1.111       .  S
C1022      H1026   1.110       .  S
C1022      H1027   1.110       .  S
C1022      H1028   1.111       .  S
C1029      C1030   1.396       .  A
C1029      C1034   1.400       .  A
C1029      H1036   1.085       .  S
C1030      C1031   1.412       .  A
C1031      C1032   1.404       .  A
C1031      C1038   1.506       .  S
C1032      C1033   1.403       .  A
C1032      H1037   1.084       .  S
C1033      C1034   1.425       .  A
C1034      C1035   1.512       .  S
C1035      H1039   1.110       .  S
C1035      H1040   1.106       .  S
C1035      H1041   1.106       .  S
C1038      H1042   1.109       .  S
C1038      H1043   1.110       .  S
C1038      H1044   1.111       .  S
C1045      C1046   1.396       .  A
C1045      C1050   1.407       .  A
C1045      H1052   1.084       .  S
C1046      C1047   1.406       .  A
C1047      C1048   1.403       .  A
C1047      C1054   1.491       .  S
C1048      C1049   1.397       .  A
C1048      H1053   1.083       .  S
C1049      C1050   1.422       .  A
C1050      C1051   1.499       .  S
C1051      H1055   1.110       .  S
C1051      H1056   1.107       .  S
C1051      H1057   1.106       .  S
C1054      H1058   1.110       .  S
C1054      H1059   1.109       .  S
C1054      H1060   1.096   1_554  S
C1061      C1062   1.414       .  A
C1061      C1066   1.421   1_554  A
C1061      H1068   1.076       .  S
C1062      C1063   1.423       .  A
C1063      C1064   1.405   1_554  A
C1063      C1070   1.491       .  S
C1064      C1065   1.397       .  A
C1064      H1069   1.085       .  S
C1065      C1066   1.417       .  A
C1066      C1067   1.502       .  S
C1067      H1071   1.111       .  S
C1067      H1072   1.106       .  S
C1067      H1073   1.103       .  S
C1070      H1074   1.094       .  S
C1070      H1075   1.108       .  S
C1070      H1076   1.111       .  S
C1077      C1078   1.403       .  A
C1077      C1082   1.398       .  A
C1077      H1084   1.076       .  S
C1078      C1079   1.413       .  A
C1079      C1080   1.412       .  A
C1079      C1086   1.505       .  S
C1080      C1081   1.407       .  A
C1080      H1085   1.084       .  S
C1081      C1082   1.408       .  A
C1082      C1083   1.508       .  S
C1083      H1087   1.111       .  S
C1083      H1088   1.109       .  S
C1083      H1089   1.110       .  S
C1086      H1090   1.111       .  S
C1086      H1091   1.109       .  S
C1086      H1092   1.111       .  S
C1093      C1094   1.401       .  A
C1093      C1098   1.411       .  A
C1093      H1100   1.078       .  S
C1094      C1095   1.408       .  A
C1095      C1096   1.401       .  A
C1095      C1102   1.507       .  S
C1096      C1097   1.408       .  A
C1096      H1101   1.084       .  S
C1097      C1098   1.422       .  A
C1098      C1099   1.505       .  S
C1099      H1103   1.111       .  S
C1099      H1104   1.110       .  S
C1099      H1105   1.110       .  S
C1102      H1106   1.107       .  S
C1102      H1107   1.109       .  S
C1102      H1108   1.112       .  S
C1109      C1110   1.394       .  A
C1109      C1114   1.402       .  A
C1109      H1116   1.085       .  S
C1110      C1111   1.415       .  A
C1111      C1112   1.407       .  A
C1111      C1118   1.507       .  S
C1112      C1113   1.411       .  A
C1112      H1117   1.083       .  S
C1113      C1114   1.422       .  A
C1114      C1115   1.500       .  S
C1115      H1119   1.111       .  S
C1115      H1120   1.098       .  S
C1115      H1121   1.111       .  S
C1118      H1122   1.110       .  S
C1118      H1123   1.109       .  S
C1118      H1124   1.111       .  S
C1125      C1126   1.416       .  A
C1125      C1130   1.412       .  A
C1125      H1132   1.080       .  S
C1126      C1127   1.422       .  A
C1127      C1128   1.390       .  A
C1127      C1134   1.494       .  S
C1128      C1129   1.393       .  A
C1128      H1133   1.086       .  S
C1129      C1130   1.410       .  A
C1130      C1131   1.505       .  S
C1131      H1135   1.111       .  S
C1131      H1136   1.110       .  S
C1131      H1137   1.110       .  S
C1134      H1138   1.113       .  S
C1134      H1139   1.100       .  S
C1134      H1140   1.107       .  S
C1141      C1142   1.391       .  A
C1141      C1146   1.395   1_565  A
C1141      H1148   1.084       .  S
C1142      C1143   1.412       .  A
C1143      C1144   1.421   1_565  A
C1143      C1150   1.504       .  S
C1144      C1145   1.424       .  A
C1144      H1149   1.068       .  S
C1145      C1146   1.434       .  A
C1146      C1147   1.494       .  S
C1147      H1151   1.110       .  S
C1147      H1152   1.110   1_545  S
C1147      H1153   1.073       .  S
C1150      H1154   1.110       .  S
C1150      H1155   1.106       .  S
C1150      H1156   1.110       .  S
C1157      C1158   1.406       .  A
C1157      C1162   1.403       .  A
C1157      H1164   1.077       .  S
C1158      C1159   1.426       .  A
C1159      C1160   1.411       .  A
C1159      C1166   1.508       .  S
C1160      C1161   1.404       .  A
C1160      H1165   1.085       .  S
C1161      C1162   1.415       .  A
C1162      C1163   1.508       .  S
C1163      H1167   1.111       .  S
C1163      H1168   1.110       .  S
C1163      H1169   1.111       .  S
C1166      H1170   1.110       .  S
C1166      H1171   1.103       .  S
C1166      H1172   1.110       .  S
C1173      C1174   1.403       .  A
C1173      C1178   1.398       .  A
C1173      H1180   1.084       .  S
C1174      C1175   1.415       .  A
C1175      C1176   1.400       .  A
C1175      C1182   1.507       .  S
C1176      C1177   1.397       .  A
C1176      H1181   1.085       .  S
C1177      C1178   1.410       .  A
C1178      C1179   1.507       .  S
C1179      H1183   1.111       .  S
C1179      H1184   1.111       .  S
C1179      H1185   1.109       .  S
C1182      H1186   1.107       .  S
C1182      H1187   1.111       .  S
C1182      H1188   1.110       .  S
C1189      C1190   1.404       .  A
C1189      C1194   1.401       .  A
C1189      H1196   1.085       .  S
C1190      C1191   1.414       .  A
C1191      C1192   1.403       .  A
C1191      C1198   1.507       .  S
C1192      C1193   1.402       .  A
C1192      H1197   1.083       .  S
C1193      C1194   1.407       .  A
C1194      C1195   1.506       .  S
C1195      H1199   1.111       .  S
C1195      H1200   1.110       .  S
C1195      H1201   1.110       .  S
C1198      H1202   1.108       .  S
C1198      H1203   1.110       .  S
C1198      H1204   1.110   1_545  S
C1205      C1206   1.406       .  A
C1205      C1210   1.409       .  A
C1205      H1212   1.082       .  S
C1206      C1207   1.420       .  A
C1207      C1208   1.404       .  A
C1207      C1214   1.506       .  S
C1208      C1209   1.398       .  A
C1208      H1213   1.085       .  S
C1209      C1210   1.413       .  A
C1210      C1211   1.506       .  S
C1211      H1215   1.111       .  S
C1211      H1216   1.111       .  S
C1211      H1217   1.110       .  S
C1214      H1218   1.110       .  S
C1214      H1219   1.103       .  S
C1214      H1220   1.110       .  S
C1221      C1222   1.403       .  A
C1221      C1226   1.415   1_545  A
C1221      H1228   1.084       .  S
C1222      C1223   1.415       .  A
C1223      C1224   1.396   1_545  A
C1223      C1230   1.511       .  S
C1224      C1225   1.404       .  A
C1224      H1229   1.070       .  S
C1225      C1226   1.426       .  A
C1226      C1227   1.490       .  S
C1227      H1231   1.111       .  S
C1227      H1232   1.094       .  S
C1227      H1233   1.109       .  S
C1230      H1234   1.110       .  S
C1230      H1235   1.100       .  S
C1230      H1236   1.111       .  S
C1237      C1238   1.394       .  A
C1237      C1242   1.400   1_554  A
C1237      H1244   1.085       .  S
C1238      C1239   1.409       .  A
C1239      C1240   1.416   1_554  A
C1239      C1246   1.507       .  S
C1240      C1241   1.428       .  A
C1240      H1245   1.060       .  S
C1241      C1242   1.420       .  A
C1242      C1243   1.472       .  S
C1243      H1247   1.111       .  S
C1243      H1248   1.107       .  S
C1243      H1249   1.106       .  S
C1246      H1250   1.110       .  S
C1246      H1251   1.107       .  S
C1246      H1252   1.110       .  S
C1253      C1254   1.410       .  A
C1253      C1258   1.397       .  A
C1253      H1260   1.063       .  S
C1254      C1255   1.424       .  A
C1255      C1256   1.403       .  A
C1255      C1262   1.504       .  S
C1256      C1257   1.402       .  A
C1256      H1261   1.084       .  S
C1257      C1258   1.411       .  A
C1258      C1259   1.511       .  S
C1259      H1263   1.111       .  S
C1259      H1264   1.110       .  S
C1259      H1265   1.110       .  S
C1262      H1266   1.108       .  S
C1262      H1267   1.105       .  S
C1262      H1268   1.111       .  S
C1269      C1270   1.405       .  A
C1269      C1274   1.401       .  A
C1269      H1276   1.077       .  S
C1270      C1271   1.418       .  A
C1271      C1272   1.400       .  A
C1271      C1278   1.505       .  S
C1272      C1273   1.396       .  A
C1272      H1277   1.084       .  S
C1273      C1274   1.410       .  A
C1274      C1275   1.508       .  S
C1275      H1279   1.111       .  S
C1275      H1280   1.110       .  S
C1275      H1281   1.109       .  S
C1278      H1282   1.110       .  S
C1278      H1283   1.102       .  S
C1278      H1284   1.111       .  S
C1285      C1286   1.396       .  A
C1285      C1290   1.400       .  A
C1285      H1292   1.085       .  S
C1286      C1287   1.410       .  A
C1287      C1288   1.402       .  A
C1287      C1294   1.507       .  S
C1288      C1289   1.400       .  A
C1288      H1293   1.080       .  S
C1289      C1290   1.417       .  A
C1290      C1291   1.505       .  S
C1291      H1295   1.110       .  S
C1291      H1296   1.109       .  S
C1291      H1297   1.107       .  S
C1294      H1298   1.108       .  S
C1294      H1299   1.110       .  S
C1294      H1300   1.110       .  S
C1301      C1302   1.402       .  A
C1301      C1306   1.400       .  A
C1301      H1308   1.081       .  S
C1302      C1303   1.406       .  A
C1303      C1304   1.399       .  A
C1303      C1310   1.505       .  S
C1304      C1305   1.403       .  A
C1304      H1309   1.084       .  S
C1305      C1306   1.410       .  A
C1306      C1307   1.506       .  S
C1307      H1311   1.108       .  S
C1307      H1312   1.109       .  S
C1307      H1313   1.110       .  S
C1310      H1314   1.110       .  S
C1310      H1315   1.110       .  S
C1310      H1316   1.111       .  S
C1317      C1318   1.409       .  A
C1317      C1322   1.409       .  A
C1317      H1324   1.084       .  S
C1318      C1319   1.418       .  A
C1319      C1320   1.407       .  A
C1319      C1326   1.500       .  S
C1320      C1321   1.402       .  A
C1320      H1325   1.085       .  S
C1321      C1322   1.411       .  A
C1322      C1323   1.505       .  S
C1323      H1327   1.111       .  S
C1323      H1328   1.110       .  S
C1323      H1329   1.110       .  S
C1326      H1330   1.106       .  S
C1326      H1331   1.108       .  S
C1326      H1332   1.107       .  S
C1333      C1334   1.414       .  A
C1333      C1338   1.416       .  A
C1333      H1340   1.083       .  S
C1334      C1335   1.427       .  A
C1335      C1336   1.402       .  A
C1335      C1342   1.492       .  S
C1336      C1337   1.394       .  A
C1336      H1341   1.085       .  S
C1337      C1338   1.412       .  A
C1338      C1339   1.504       .  S
C1339      H1343   1.111       .  S
C1339      H1344   1.110       .  S
C1339      H1345   1.110       .  S
C1342      H1346   1.110       .  S
C1342      H1347   1.087       .  S
C1342      H1348   1.108   1_545  S
C1349      C1350   1.413       .  A
C1349      C1354   1.412       .  A
C1349      H1356   1.084       .  S
C1350      C1351   1.427       .  A
C1351      C1352   1.405       .  A
C1351      C1358   1.497       .  S
C1352      C1353   1.398       .  A
C1352      H1357   1.085       .  S
C1353      C1354   1.411       .  A
C1354      C1355   1.505       .  S
C1355      H1359   1.111       .  S
C1355      H1360   1.110       .  S
C1355      H1361   1.110       .  S
C1358      H1362   1.110       .  S
C1358      H1363   1.088       .  S
C1358      H1364   1.111       .  S
C1365      C1366   1.410       .  A
C1365      C1370   1.408       .  A
C1365      H1372   1.084       .  S
C1366      C1367   1.420       .  A
C1367      C1368   1.401       .  A
C1367      C1374   1.501       .  S
C1368      C1369   1.397       .  A
C1368      H1373   1.080       .  S
C1369      C1370   1.408       .  A
C1370      C1371   1.505       .  S
C1371      H1375   1.111       .  S
C1371      H1376   1.110       .  S
C1371      H1377   1.110       .  S
C1374      H1378   1.101       .  S
C1374      H1379   1.110   1_545  S
C1374      H1380   1.105   1_545  S
C1381      C1382   1.409       .  A
C1381      C1386   1.423   1_545  A
C1381      H1388   1.083       .  S
C1382      C1383   1.424   1_545  A
C1383      C1384   1.388       .  A
C1383      C1390   1.498   1_565  S
C1384      C1385   1.389       .  A
C1384      H1389   1.080       .  S
C1385      C1386   1.421       .  A
C1386      C1387   1.499       .  S
C1387      H1391   1.111       .  S
C1387      H1392   1.105       .  S
C1387      H1393   1.109       .  S
C1390      H1394   1.108   1_545  S
C1390      H1395   1.102       .  S
C1390      H1396   1.108   1_545  S
C1397      C1398   1.399       .  A
C1397      C1402   1.402       .  A
C1397      H1404   1.085       .  S
C1398      C1399   1.408       .  A
C1399      C1400   1.405       .  A
C1399      C1406   1.505       .  S
C1400      C1401   1.405       .  A
C1400      H1405   1.084       .  S
C1401      C1402   1.417       .  A
C1402      C1403   1.500       .  S
C1403      H1407   1.111       .  S
C1403      H1408   1.100       .  S
C1403      H1409   1.109       .  S
C1406      H1410   1.110       .  S
C1406      H1411   1.110       .  S
C1406      H1412   1.111       .  S
C1413      C1414   1.398       .  A
C1413      C1418   1.400       .  A
C1413      H1420   1.085       .  S
C1414      C1415   1.408       .  A
C1415      C1416   1.405       .  A
C1415      C1422   1.505       .  S
C1416      C1417   1.406       .  A
C1416      H1421   1.084       .  S
C1417      C1418   1.418       .  A
C1418      C1419   1.501       .  S
C1419      H1423   1.107       .  S
C1419      H1424   1.101       .  S
C1419      H1425   1.108       .  S
C1422      H1426   1.110       .  S
C1422      H1427   1.110       .  S
C1422      H1428   1.111       .  S
C1429      C1430   1.396       .  A
C1429      C1434   1.399       .  A
C1429      H1436   1.085       .  S
C1430      C1431   1.408       .  A
C1431      C1432   1.407       .  A
C1431      C1438   1.504       .  S
C1432      C1433   1.408       .  A
C1432      H1437   1.084       .  S
C1433      C1434   1.421       .  A
C1434      C1435   1.499       .  S
C1435      H1439   1.110       .  S
C1435      H1440   1.093       .  S
C1435      H1441   1.110       .  S
C1438      H1442   1.110       .  S
C1438      H1443   1.110       .  S
C1438      H1444   1.111       .  S
C1445      C1446   1.408       .  A
C1445      C1450   1.402       .  A
C1445      H1452   1.084       .  S
C1446      C1447   1.419       .  A
C1447      C1448   1.399       .  A
C1447      C1454   1.504       .  S
C1448      C1449   1.398       .  A
C1448      H1453   1.082       .  S
C1449      C1450   1.405       .  A
C1450      C1451   1.505       .  S
C1451      H1455   1.111       .  S
C1451      H1456   1.110       .  S
C1451      H1457   1.110       .  S
C1454      H1458   1.100       .  S
C1454      H1459   1.107   1_545  S
C1454      H1460   1.110       .  S
C1461      C1462   1.386       .  A
C1461      C1466   1.380       .  A
C1461      H1468   1.083       .  S
C1462      C1463   1.414       .  A
C1463      C1464   1.423   1_455  A
C1463      C1470   1.502       .  S
C1464      C1465   1.416       .  A
C1464      H1469   1.081       .  S
C1465      C1466   1.420   1_655  A
C1466      C1467   1.495   1_455  S
C1467      H1471   1.109   1_655  S
C1467      H1472   1.090       .  S
C1467      H1473   1.109   1_655  S
C1470      H1474   1.110       .  S
C1470      H1475   1.107       .  S
C1470      H1476   1.111       .  S
C1477      C1478   1.407       .  A
C1477      C1482   1.402       .  A
C1477      H1484   1.078       .  S
C1478      C1479   1.417       .  A
C1479      C1480   1.400       .  A
C1479      C1486   1.497       .  S
C1480      C1481   1.392       .  A
C1480      H1485   1.085       .  S
C1481      C1482   1.408       .  A
C1482      C1483   1.507       .  S
C1483      H1487   1.111       .  S
C1483      H1488   1.110       .  S
C1483      H1489   1.111       .  S
C1486      H1490   1.105       .  S
C1486      H1491   1.105       .  S
C1486      H1492   1.111       .  S
C1493      C1494   1.407       .  A
C1493      C1498   1.409       .  A
C1493      H1500   1.079       .  S
C1494      C1495   1.423       .  A
C1495      C1496   1.396       .  A
C1495      C1502   1.493       .  S
C1496      C1497   1.388       .  A
C1496      H1501   1.085       .  S
C1497      C1498   1.413       .  A
C1498      C1499   1.506       .  S
C1499      H1503   1.111       .  S
C1499      H1504   1.110       .  S
C1499      H1505   1.110       .  S
C1502      H1506   1.098       .  S
C1502      H1507   1.103       .  S
C1502      H1508   1.111       .  S
C1509      C1510   1.404       .  A
C1509      C1514   1.407       .  A
C1509      H1516   1.083       .  S
C1510      C1511   1.422       .  A
C1511      C1512   1.397       .  A
C1511      C1518   1.499       .  S
C1512      C1513   1.390       .  A
C1512      H1517   1.085       .  S
C1513      C1514   1.411       .  A
C1514      C1515   1.504       .  S
C1515      H1519   1.110       .  S
C1515      H1520   1.107       .  S
C1515      H1521   1.110       .  S
C1518      H1522   1.098       .  S
C1518      H1523   1.109       .  S
C1518      H1524   1.110       .  S
C1525      C1526   1.405       .  A
C1525      C1530   1.410       .  A
C1525      H1532   1.083       .  S
C1526      C1527   1.421       .  A
C1527      C1528   1.395       .  A
C1527      C1534   1.496       .  S
C1528      C1529   1.389       .  A
C1528      H1533   1.086       .  S
C1529      C1530   1.413       .  A
C1530      C1531   1.506       .  S
C1531      H1535   1.111       .  S
C1531      H1536   1.110       .  S
C1531      H1537   1.108       .  S
C1534      H1538   1.097       .  S
C1534      H1539   1.110       .  S
C1534      H1540   1.109       .  S
C1541      C1542   1.399       .  A
C1541      C1546   1.396   1_545  A
C1541      H1548   1.083       .  S
C1542      C1543   1.417       .  A
C1543      C1544   1.423   1_545  A
C1543      C1550   1.504       .  S
C1544      C1545   1.413       .  A
C1544      H1549   1.080       .  S
C1545      C1546   1.417       .  A
C1546      C1547   1.501       .  S
C1547      H1551   1.111       .  S
C1547      H1552   1.106       .  S
C1547      H1553   1.110       .  S
C1550      H1554   1.109       .  S
C1550      H1555   1.106       .  S
C1550      H1556   1.110       .  S
C1557      C1558   1.400       .  A
C1557      C1562   1.402   1_455  A
C1557      H1564   1.072       .  S
C1558      C1559   1.419       .  A
C1559      C1560   1.421   1_455  A
C1559      C1566   1.499       .  S
C1560      C1561   1.419       .  A
C1560      H1565   1.082       .  S
C1561      C1562   1.422       .  A
C1562      C1563   1.499       .  S
C1563      H1567   1.087       .  S
C1563      H1568   1.108       .  S
C1563      H1569   1.111       .  S
C1566      H1570   1.105       .  S
C1566      H1571   1.110       .  S
C1566      H1572   1.111       .  S
