geometry optimzed in LAMMPS
_audit_creation_date              2020-11-30 
_audit_creation_method            'lammps2cif' 
_symmetry_space_group_name_H-M    'P1' 
_symmetry_Int_Tables_number       1 
_symmetry_cell_setting            triclinic 
loop_ 
_symmetry_equiv_pos_as_xyz 
  x,y,z 
_cell_length_a                    30.779494113812063 
_cell_length_b                    30.78821273392218 
_cell_length_c                    37.2792897378051 
_cell_angle_alpha                 89.99091381476626 
_cell_angle_beta                  90.04741676304545 
_cell_angle_gamma                 90.31584034391138 
loop_ 
_atom_site_label 
_atom_site_type_symbol 
_atom_site_fract_x 
_atom_site_fract_y 
_atom_site_fract_z 
_atom_site_charge 
C1          C  0.49633488  0.47870706  0.37770906     0.03390
C2          C  0.00356259  0.02201296  0.37772807     0.03390
C3          C  0.49639459  0.47813632  0.12560089     0.03390
C4          C  0.00391008  0.02140427  0.12553577     0.03390
O5          O  0.13849825  0.20388604  0.46535029    -0.71600
O6          O  0.13327064  0.29118010  0.03836104    -0.71630
O7          O  0.13916110  0.20358455  0.03813589    -0.71680
O8          O  0.13245132  0.29145098  0.46553519    -0.71730
O9          O  0.06006349  0.28583754  0.46596780    -0.71660
O10         O  0.06679115  0.19791836  0.03860535    -0.71640
O11         O  0.06087859  0.28561109  0.03881415    -0.71620
O12         O  0.06613106  0.19815096  0.46565870    -0.71680
Ni13       Ni  0.13841915  0.24776257  0.00183181     1.25410
Ni14       Ni  0.06083804  0.24174826  0.00228003     1.25360
C15         C  0.10329596  0.18678083  0.45355858     0.90580
C16         C  0.09623466  0.30229579  0.05075247     0.90510
C17         C  0.10414337  0.18642218  0.05023860     0.90540
C18         C  0.09514395  0.30260327  0.45363807     0.90710
C19         C  0.37763790  0.41909704  0.39006558     0.00340
C20         C  0.37680180  0.41999146  0.11387861     0.00340
C21         C  0.12326595  0.07999338  0.11341333     0.00340
C22         C  0.12262371  0.08100405  0.38980719     0.00340
C23         C  0.27105766  0.49323920  0.00124829     0.03390
C24         C  0.22936848  0.00696788  0.00125629     0.03390
O25         O  0.36169515  0.29658300  0.46586876    -0.71600
O26         O  0.36670116  0.20864475  0.03845651    -0.71630
O27         O  0.36080728  0.29627862  0.03866075    -0.71680
O28         O  0.36749462  0.20902448  0.46564776    -0.71730
O29         O  0.43989175  0.21449359  0.46620875    -0.71660
O30         O  0.43317680  0.30188573  0.03935971    -0.71640
O31         O  0.43909794  0.21415516  0.03903816    -0.71620
O32         O  0.43407313  0.30217470  0.46640581    -0.71680
Ni33       Ni  0.36160009  0.25240339  0.00214505     1.25410
Ni34       Ni  0.43918743  0.25830861  0.00278783     1.25360
C35         C  0.39697466  0.31366027  0.45422338     0.90580
C36         C  0.40374647  0.19736068  0.05080198     0.90510
C37         C  0.39579277  0.31335682  0.05092631     0.90540
C38         C  0.40476522  0.19789587  0.45373832     0.90710
O39         O  0.19836921  0.43640302  0.21619431    -0.71600
O40         O  0.28625490  0.44020375  0.28909463    -0.71630
O41         O  0.28616621  0.44148090  0.21630788    -0.71680
O42         O  0.19841527  0.43511921  0.28914121    -0.71730
O43         O  0.20261079  0.36273467  0.28828635    -0.71660
O44         O  0.29032347  0.36907353  0.21551231    -0.71640
O45         O  0.29042371  0.36779534  0.28830193    -0.71620
O46         O  0.20261203  0.36401491  0.21543460    -0.71680
Ni47       Ni  0.24221808  0.44090872  0.25272732     1.25410
Ni48       Ni  0.24666206  0.36331317  0.25186183     1.25320
C49         C  0.18624981  0.39948918  0.20383393     0.90580
C50         C  0.30237613  0.40467321  0.30077587     0.90510
C51         C  0.30217359  0.40633681  0.20377251     0.90540
C52         C  0.18621103  0.39781695  0.30062531     0.90710
C53         C  0.08021229  0.37773058  0.36417109     0.00340
C54         C  0.08125630  0.37794325  0.13975356     0.00340
C55         C  0.41913880  0.12169964  0.13969785     0.00340
C56         C  0.41918260  0.12269792  0.36424648     0.00340
C57         C  0.49156042  0.22975248  0.25156257     0.03390
C58         C  0.00759669  0.27066839  0.25159438     0.03390
O59         O  0.29721111  0.13693784  0.28832835    -0.71600
O60         O  0.20979590  0.13118989  0.21518604    -0.71630
O61         O  0.20945542  0.13188698  0.28798126    -0.71680
O62         O  0.29754500  0.13623096  0.21545994    -0.71730
O63         O  0.30175259  0.06383825  0.21589720    -0.71660
O64         O  0.21360740  0.05947298  0.28845400    -0.71640
O65         O  0.21394438  0.05877671  0.21566021    -0.71620
O66         O  0.30141509  0.06454727  0.28885842    -0.71680
Ni67       Ni  0.25333369  0.13665342  0.25172096     1.25410
Ni68       Ni  0.25776384  0.05905177  0.25223687     1.25360
C69         C  0.31352328  0.10176590  0.30059747     0.90580
C70         C  0.19794993  0.09401112  0.20326002     0.90510
C71         C  0.19750436  0.09492620  0.30028263     0.90540
C72         C  0.31395188  0.10083382  0.20376415     0.90710
C73         C  0.42264751  0.19308140  0.32899483    -0.10520
C74         C  0.44307367  0.15390846  0.33899005     0.11630
C75         C  0.48362089  0.14408821  0.32323057    -0.10520
C76         C  0.50098905  0.17059804  0.29641855    -0.10520
C77         C  0.47864226  0.20756026  0.28501755     0.11630
C78         C  0.44014417  0.21946340  0.30219455    -0.10520
H79         H  0.39179175  0.20203961  0.34073638     0.15620
H80         H  0.50137359  0.11511429  0.33019303     0.15620
H81         H  0.53103787  0.16127199  0.28354666     0.15620
H82         H  0.42243830  0.24789235  0.29346449     0.15620
C83         C  0.34708404  0.10449088  0.32735241    -0.10440
C84         C  0.37796807  0.11033293  0.34681085    -0.12000
C85         C  0.42207234  0.19207869  0.17489242    -0.10520
C86         C  0.44307152  0.15336947  0.16455195     0.11630
C87         C  0.48431321  0.14450187  0.17952732    -0.10520
C88         C  0.50179832  0.17136052  0.20609397    -0.10520
C89         C  0.47880919  0.20766771  0.21801207     0.11630
C90         C  0.43963270  0.21874248  0.20146504    -0.10520
H91         H  0.39071725  0.20037145  0.16367999     0.15620
H92         H  0.50254375  0.11598527  0.17215483     0.15620
H93         H  0.53238235  0.16271195  0.21846986     0.15620
H94         H  0.42145118  0.24667088  0.21058791     0.15620
C95         C  0.37839166  0.10886060  0.15758424    -0.10440
C96         C  0.34763617  0.10307896  0.17714466    -0.12000
C97         C  0.07950167  0.30887529  0.17674180    -0.10520
C98         C  0.05751676  0.34634142  0.16476948     0.11630
C99         C  0.01515900  0.35390023  0.17797342    -0.10520
C100        C  0.99736508  0.32715120  0.20446901    -0.10520
C101        C  0.02125744  0.29235456  0.21814290     0.11630
C102        C  0.06175740  0.28249532  0.20339818    -0.10520
H103        H  0.11166225  0.30145169  0.16677234     0.15620
H104        H  0.99607877  0.38121262  0.16907413     0.15620
H105        H  0.96575112  0.33477003  0.21543923     0.15620
H106        H  0.08059087  0.25569950  0.21387632     0.15620
C107        C  0.99907613  0.33154929  0.29494719    -0.10520
C108        C  0.01995061  0.29310144  0.28511595     0.11630
C109        C  0.05701159  0.27989510  0.30379862    -0.10520
C110        C  0.07472581  0.30634871  0.33047150    -0.10520
C111        C  0.05576886  0.34670750  0.33908337     0.11630
C112        C  0.01650479  0.35799720  0.32179128    -0.10520
H113        H  0.97026116  0.34204797  0.28079115     0.15620
H114        H  0.07368882  0.25038999  0.29622928     0.15620
H115        H  0.10468135  0.29637444  0.34323273     0.15620
H116        H  0.00006058  0.38814378  0.32739715     0.15620
C117        C  0.12196175  0.39132660  0.15750078    -0.10440
C118        C  0.15267837  0.39737026  0.17708209    -0.12000
C119        C  0.15245220  0.39494505  0.32716914    -0.10440
C120        C  0.12147615  0.38937993  0.34654893    -0.12000
C121        C  0.40993731  0.14384482  0.10565462    -0.10440
C122        C  0.40579970  0.16638473  0.07944237    -0.12000
C123        C  0.40722558  0.16735789  0.42477884    -0.10440
C124        C  0.41095205  0.14503502  0.39838905    -0.12000
C125        C  0.14439725  0.08929088  0.35543018    -0.10440
C126        C  0.16666558  0.09308042  0.32902165    -0.12000
C127        C  0.14309548  0.01575059  0.42989355    -0.10520
C128        C  0.15361365  0.05635893  0.41442687     0.11630
C129        C  0.19340899  0.07619067  0.42411313    -0.10520
C130        C  0.21970810  0.05821950  0.45059914    -0.10520
C131        C  0.20716897  0.01975939  0.46774548     0.11630
C132        C  0.16962647  0.99780734  0.45639424    -0.10520
H133        H  0.11357213  0.99852536  0.42290129     0.15620
H134        H  0.20289631  0.10706440  0.41247929     0.15620
H135        H  0.24855991  0.07564120  0.45922344     0.15620
H136        H  0.15986270  0.96767444  0.46907261     0.15620
C137        C  0.16732662  0.09168952  0.17433420    -0.10440
C138        C  0.14512795  0.08786593  0.14785432    -0.12000
C139        C  0.22009711  0.05755001  0.05242943    -0.10520
C140        C  0.20718582  0.01954522  0.03478689     0.11630
C141        C  0.16948800  0.99768107  0.04585755    -0.10520
C142        C  0.14318573  0.01529339  0.07261336    -0.10520
C143        C  0.15408438  0.05549243  0.08861117     0.11630
C144        C  0.19401712  0.07519749  0.07916718    -0.10520
H145        H  0.24909326  0.07487893  0.04404292     0.15620
H146        H  0.15945996  0.96786734  0.03280768     0.15620
H147        H  0.11352621  0.99818661  0.07937488     0.15620
H148        H  0.20377509  0.10576895  0.09118978     0.15620
C149        C  0.35489405  0.41253513  0.14835337    -0.10440
C150        C  0.33276144  0.40883069  0.17486021    -0.12000
C151        C  0.35820827  0.48403084  0.07190911    -0.10520
C152        C  0.34631601  0.44468468  0.08885803     0.11630
C153        C  0.30573535  0.42587578  0.08005499    -0.10520
C154        C  0.27972886  0.44363687  0.05326303    -0.10520
C155        C  0.29346643  0.48076921  0.03477516     0.11630
C156        C  0.33206842  0.50166461  0.04501655    -0.10520
H157        H  0.38851651  0.50036881  0.07799045     0.15620
H158        H  0.29528998  0.39590554  0.09269831     0.15620
H159        H  0.25009286  0.42696882  0.04548798     0.15620
H160        H  0.34286394  0.53073462  0.03126427     0.15620
C161        C  0.39263808  0.34715045  0.07738649    -0.10440
C162        C  0.38706000  0.37827538  0.09653493    -0.12000
C163        C  0.33332428  0.40637099  0.32947753    -0.10440
C164        C  0.35576655  0.41033010  0.35579491    -0.12000
C165        C  0.35625932  0.48490548  0.42914367    -0.10520
C166        C  0.34648147  0.44365957  0.41452482     0.11630
C167        C  0.30726830  0.42319230  0.42486358    -0.10520
C168        C  0.28104614  0.44112895  0.45135580    -0.10520
C169        C  0.29297694  0.48025843  0.46772732     0.11630
C170        C  0.32971603  0.50288673  0.45557632    -0.10520
H171        H  0.38521676  0.50266652  0.42150891     0.15620
H172        H  0.29828493  0.39186204  0.41380325     0.15620
H173        H  0.25276274  0.42324908  0.46057554     0.15620
H174        H  0.33890201  0.53358173  0.46761877     0.15620
C175        C  0.38888828  0.37806396  0.40807896    -0.10440
C176        C  0.39446154  0.34731019  0.42762164    -0.12000
C177        C  0.10602598  0.15313778  0.42696724    -0.10440
C178        C  0.11173728  0.12227491  0.40757919    -0.12000
C179        C  0.10717277  0.15257806  0.07665410    -0.10440
C180        C  0.11265213  0.12151264  0.09588874    -0.12000
C181        C  0.09427095  0.33297945  0.07961293    -0.10440
C182        C  0.09041748  0.35548282  0.10587114    -0.12000
C183        C  0.08848576  0.35560414  0.39842698    -0.10440
C184        C  0.09252214  0.33331209  0.42481007    -0.12000
C185        C  0.03116490  0.44694133  0.12749074    -0.10440
C186        C  0.05589484  0.41714544  0.13176345    -0.12000
C187        C  0.08219878  0.05678573  0.12028836    -0.10440
C188        C  0.04733700  0.03925947  0.12383265    -0.12000
C189        C  0.46910260  0.05256867  0.12757792    -0.10440
C190        C  0.44431537  0.08231260  0.13189536    -0.12000
C191        C  0.41805044  0.44285680  0.12074664    -0.10440
C192        C  0.45296899  0.46028950  0.12417154    -0.12000
C193        C  0.08169016  0.05768110  0.38277850    -0.10440
C194        C  0.04688560  0.04006563  0.37926100    -0.12000
C195        C  0.05591034  0.41775863  0.37170160    -0.10440
C196        C  0.03132368  0.44771240  0.37584756    -0.12000
C197        C  0.45303494  0.46058477  0.37929953    -0.10440
C198        C  0.41835529  0.44273775  0.38288584    -0.12000
C199        C  0.44395452  0.08296751  0.37184453    -0.10440
C200        C  0.46860345  0.05304671  0.37594126    -0.12000
C201        C  0.49633560  0.47870690  0.87770940     0.03390
C202        C  0.00356310  0.02201284  0.87772806     0.03390
C203        C  0.49639550  0.47813633  0.62560109     0.03390
C204        C  0.00391085  0.02140431  0.62553579     0.03390
O205        O  0.13849839  0.20388559  0.96535072    -0.71600
O206        O  0.13327050  0.29118044  0.53836072    -0.71630
O207        O  0.13916113  0.20358492  0.53813542    -0.71680
O208        O  0.13245160  0.29145051  0.96553552    -0.71730
O209        O  0.06006376  0.28583719  0.96596804    -0.71660
O210        O  0.06679119  0.19791859  0.53860499    -0.71640
O211        O  0.06087846  0.28561130  0.53881393    -0.71620
O212        O  0.06613119  0.19815064  0.96565901    -0.71680
Ni213      Ni  0.13841901  0.24776299  0.50183142     1.25410
Ni214      Ni  0.06083792  0.24174854  0.50227975     1.25360
C215        C  0.10329609  0.18678050  0.95355890     0.90580
C216        C  0.09623453  0.30229599  0.55075226     0.90510
C217        C  0.10414346  0.18642244  0.55023814     0.90540
C218        C  0.09514427  0.30260286  0.95363834     0.90710
C219        C  0.37763820  0.41909771  0.89006621     0.00340
C220        C  0.37680242  0.41999190  0.61387880     0.00340
C221        C  0.12326651  0.07999373  0.61341293     0.00340
C222        C  0.12262401  0.08100436  0.88980685     0.00340
C223        C  0.27105803  0.49323864  0.50124786     0.03390
C224        C  0.22936891  0.00696750  0.50125621     0.03390
O225        O  0.36169457  0.29658271  0.96586866    -0.71600
O226        O  0.36670157  0.20864495  0.53845661    -0.71630
O227        O  0.36080744  0.29627882  0.53866088    -0.71680
O228        O  0.36749397  0.20902414  0.96564766    -0.71730
O229        O  0.43989111  0.21449316  0.96620850    -0.71660
O230        O  0.43317695  0.30188607  0.53936007    -0.71640
O231        O  0.43909833  0.21415551  0.53903842    -0.71620
O232        O  0.43407256  0.30217432  0.96640548    -0.71680
Ni233      Ni  0.36160054  0.25240364  0.50214516     1.25410
Ni234      Ni  0.43918787  0.25830900  0.50278815     1.25360
C235        C  0.39697404  0.31366000  0.95422322     0.90580
C236        C  0.40374687  0.19736093  0.55080214     0.90510
C237        C  0.39579283  0.31335706  0.55092659     0.90540
C238        C  0.40476454  0.19789545  0.95373818     0.90710
O239        O  0.19836938  0.43640242  0.71619451    -0.71600
O240        O  0.28625499  0.44020464  0.78909488    -0.71630
O241        O  0.28616635  0.44148149  0.71630812    -0.71680
O242        O  0.19841542  0.43511895  0.78914141    -0.71730
O243        O  0.20261184  0.36273446  0.78828677    -0.71660
O244        O  0.29032453  0.36907418  0.71551273    -0.71640
O245        O  0.29042470  0.36779627  0.78830237    -0.71620
O246        O  0.20261310  0.36401437  0.71543500    -0.71680
Ni247      Ni  0.24221818  0.44090887  0.75272754     1.25410
Ni248      Ni  0.24666314  0.36331338  0.75186226     1.25320
C249        C  0.18625043  0.39948839  0.70383424     0.90580
C250        C  0.30237664  0.40467434  0.80077623     0.90510
C251        C  0.30217420  0.40633757  0.70377285     0.90540
C252        C  0.18621162  0.39781660  0.80062561     0.90710
C253        C  0.08021278  0.37773024  0.86417136     0.00340
C254        C  0.08125665  0.37794285  0.63975384     0.00340
C255        C  0.41913937  0.12169957  0.63969783     0.00340
C256        C  0.41918265  0.12269744  0.86424650     0.00340
C257        C  0.49156054  0.22975234  0.75156288     0.03390
C258        C  0.00759646  0.27066841  0.75159470     0.03390
O259        O  0.29721157  0.13693789  0.78832810    -0.71600
O260        O  0.20979640  0.13119055  0.71518572    -0.71630
O261        O  0.20945584  0.13188752  0.78798096    -0.71680
O262        O  0.29754552  0.13623116  0.71545970    -0.71730
O263        O  0.30175273  0.06383843  0.71589687    -0.71660
O264        O  0.21360745  0.05947349  0.78845360    -0.71640
O265        O  0.21394451  0.05877735  0.71565982    -0.71620
O266        O  0.30141515  0.06454729  0.78885807    -0.71680
Ni267      Ni  0.25333418  0.13665379  0.75172068     1.25410
Ni268      Ni  0.25776392  0.05905211  0.75223650     1.25360
C269        C  0.31352353  0.10176583  0.80059717     0.90580
C270        C  0.19795027  0.09401186  0.70325965     0.90510
C271        C  0.19750459  0.09492677  0.80028228     0.90540
C272        C  0.31395224  0.10083395  0.70376388     0.90710
C273        C  0.42264758  0.19308105  0.82899502    -0.10520
C274        C  0.44307379  0.15390814  0.83899024     0.11630
C275        C  0.48362111  0.14408804  0.82323087    -0.10520
C276        C  0.50098929  0.17059794  0.79641891    -0.10520
C277        C  0.47864242  0.20756010  0.78501786     0.11630
C278        C  0.44014426  0.21946313  0.80219481    -0.10520
H279        H  0.39179175  0.20203916  0.84073651     0.15620
H280        H  0.50137386  0.11511415  0.83019333     0.15620
H281        H  0.53103818  0.16127199  0.78354708     0.15620
H282        H  0.42243833  0.24789203  0.79346473     0.15620
C283        C  0.34708428  0.10449054  0.82735213    -0.10440
C284        C  0.37796827  0.11033241  0.84681064    -0.12000
C285        C  0.42207288  0.19207863  0.67489240    -0.10520
C286        C  0.44307201  0.15336935  0.66455203     0.11630
C287        C  0.48431353  0.14450160  0.67952767    -0.10520
C288        C  0.50179850  0.17136019  0.70609442    -0.10520
C289        C  0.47880942  0.20766749  0.71801237     0.11630
C290        C  0.43963311  0.21874239  0.70146510    -0.10520
H291        H  0.39071790  0.20037149  0.66367980     0.15620
H292        H  0.50254402  0.11598492  0.67215529     0.15620
H293        H  0.53238241  0.16271153  0.71847047     0.15620
H294        H  0.42145162  0.24667087  0.71058784     0.15620
C295        C  0.37839219  0.10886052  0.65758412    -0.10440
C296        C  0.34763662  0.10307897  0.67714447    -0.12000
C297        C  0.07950077  0.30887427  0.67674127    -0.10520
C298        C  0.05751669  0.34634123  0.66476968     0.11630
C299        C  0.01515949  0.35390113  0.67797442    -0.10520
C300        C  0.99736544  0.32715225  0.70447005    -0.10520
C301        C  0.02125705  0.29235467  0.71814319     0.11630
C302        C  0.06175632  0.28249439  0.70339764    -0.10520
H303        H  0.11166090  0.30144990  0.66677124     0.15620
H304        H  0.99607989  0.38121427  0.66907580     0.15620
H305        H  0.96575197  0.33477189  0.71544087     0.15620
H306        H  0.08058924  0.25569782  0.71387517     0.15620
C307        C  0.99907599  0.33154901  0.79494790    -0.10520
C308        C  0.01995057  0.29310134  0.78511629     0.11630
C309        C  0.05701179  0.27989504  0.80379866    -0.10520
C310        C  0.07472615  0.30634854  0.83047154    -0.10520
C311        C  0.05576917  0.34670722  0.83908369     0.11630
C312        C  0.01650485  0.35799684  0.82179195    -0.10520
H313        H  0.97026076  0.34204761  0.78079218     0.15620
H314        H  0.07368907  0.25039004  0.79622908     0.15620
H315        H  0.10468185  0.29637429  0.84323255     0.15620
H316        H  0.00006054  0.38814329  0.82739812     0.15620
C317        C  0.12196229  0.39132550  0.65750112    -0.10440
C318        C  0.15267895  0.39736901  0.67708243    -0.12000
C319        C  0.15245276  0.39494446  0.82716941    -0.10440
C320        C  0.12147668  0.38937940  0.84654918    -0.12000
C321        C  0.40993789  0.14384484  0.60565462    -0.10440
C322        C  0.40580014  0.16638486  0.57944245    -0.12000
C323        C  0.40722489  0.16735735  0.92477879    -0.10440
C324        C  0.41095169  0.14503443  0.89838905    -0.12000
C325        C  0.14439755  0.08929144  0.85542987    -0.10440
C326        C  0.16666584  0.09308108  0.82902133    -0.12000
C327        C  0.14309570  0.01575082  0.92989312    -0.10520
C328        C  0.15361395  0.05635915  0.91442647     0.11630
C329        C  0.19340925  0.07619089  0.92411285    -0.10520
C330        C  0.21970816  0.05821979  0.95059904    -0.10520
C331        C  0.20716885  0.01975975  0.96774542     0.11630
C332        C  0.16962648  0.99780765  0.95639397    -0.10520
H333        H  0.11357240  0.99852557  0.92290075     0.15620
H334        H  0.20289664  0.10706461  0.91247903     0.15620
H335        H  0.24855991  0.07564149  0.95922345     0.15620
H336        H  0.15986262  0.96767476  0.96907232     0.15620
C337        C  0.16732704  0.09169040  0.67433377    -0.10440
C338        C  0.14512846  0.08786664  0.64785387    -0.12000
C339        C  0.22009775  0.05755003  0.55242913    -0.10520
C340        C  0.20718657  0.01954499  0.53478691     0.11630
C341        C  0.16948885  0.99768083  0.54585779    -0.10520
C342        C  0.14318654  0.01529337  0.57261347    -0.10520
C343        C  0.15408503  0.05549266  0.58861092     0.11630
C344        C  0.19401771  0.07519774  0.57916676    -0.10520
H345        H  0.24909382  0.07487897  0.54404244     0.15620
H346        H  0.15946087  0.96786695  0.53280813     0.15620
H347        H  0.11352710  0.99818655  0.57937514     0.15620
H348        H  0.20377557  0.10576938  0.59118910     0.15620
C349        C  0.35489468  0.41253615  0.64835369    -0.10440
C350        C  0.33276208  0.40883174  0.67486055    -0.12000
C351        C  0.35821156  0.48402908  0.57190627    -0.10520
C352        C  0.34631710  0.44468532  0.58885794     0.11630
C353        C  0.30573485  0.42587845  0.58005696    -0.10520
C354        C  0.27972830  0.44363939  0.55326495    -0.10520
C355        C  0.29346766  0.48076928  0.53477458     0.11630
C356        C  0.33207185  0.50166246  0.54501345    -0.10520
H357        H  0.38852142  0.50036517  0.57798552     0.15620
H358        H  0.29528799  0.39590985  0.59270210     0.15620
H359        H  0.25009073  0.42697285  0.54549179     0.15620
H360        H  0.34286904  0.53073043  0.53125914     0.15620
C361        C  0.39263792  0.34715061  0.57738683    -0.10440
C362        C  0.38705990  0.37827555  0.59653529    -0.12000
C363        C  0.33332471  0.40637256  0.82947793    -0.10440
C364        C  0.35576690  0.41033153  0.85579537    -0.12000
C365        C  0.35626186  0.48490495  0.92914650    -0.10520
C366        C  0.34648218  0.44366052  0.91452562     0.11630
C367        C  0.30726757  0.42319474  0.92486264    -0.10520
C368        C  0.28104513  0.44113152  0.95135461    -0.10520
C369        C  0.29297738  0.48025945  0.96772798     0.11630
C370        C  0.32971853  0.50288614  0.95557914    -0.10520
H371        H  0.38522074  0.50266470  0.92151344     0.15620
H372        H  0.29828301  0.39186551  0.91380096     0.15620
H373        H  0.25276027  0.42325275  0.96057278     0.15620
H374        H  0.33890591  0.53357981  0.96762318     0.15620
C375        C  0.38888770  0.37806422  0.90807930    -0.10440
C376        C  0.39446078  0.34731015  0.92762170    -0.12000
C377        C  0.10602612  0.15313768  0.92696737    -0.10440
C378        C  0.11173747  0.12227505  0.90757906    -0.12000
C379        C  0.10717301  0.15257825  0.57665354    -0.10440
C380        C  0.11265254  0.12151284  0.59588815    -0.12000
C381        C  0.09427085  0.33297941  0.57961291    -0.10440
C382        C  0.09041750  0.35548254  0.60587128    -0.12000
C383        C  0.08848621  0.35560374  0.89842724    -0.10440
C384        C  0.09252255  0.33331167  0.92481033    -0.12000
C385        C  0.03116590  0.44694143  0.62749108    -0.10440
C386        C  0.05589569  0.41714543  0.63176385    -0.12000
C387        C  0.08219942  0.05678601  0.62028811    -0.10440
C388        C  0.04733771  0.03925965  0.62383254    -0.12000
C389        C  0.46910326  0.05256861  0.62757789    -0.10440
C390        C  0.44431599  0.08231253  0.63189531    -0.12000
C391        C  0.41805138  0.44285673  0.62074673    -0.10440
C392        C  0.45296996  0.46028936  0.62417169    -0.12000
C393        C  0.08169052  0.05768136  0.88277806    -0.10440
C394        C  0.04688602  0.04006572  0.87926067    -0.12000
C395        C  0.05591102  0.41775842  0.87170189    -0.10440
C396        C  0.03132448  0.44771231  0.87584786    -0.12000
C397        C  0.45303575  0.46058452  0.87930022    -0.10440
C398        C  0.41835600  0.44273775  0.88288667    -0.12000
C399        C  0.44395469  0.08296710  0.87184460    -0.10440
C400        C  0.46860379  0.05304642  0.87594131    -0.12000
C401        C  0.49633738  0.97870680  0.37770859     0.03390
C402        C  0.00355997  0.52201322  0.37772808     0.03390
C403        C  0.49639789  0.97813582  0.12560112     0.03390
C404        C  0.00390683  0.52140474  0.12553577     0.03390
O405        O  0.13849836  0.70388435  0.46535050    -0.71600
O406        O  0.13327195  0.79117846  0.03836119    -0.71630
O407        O  0.13916154  0.70358287  0.03813609    -0.71680
O408        O  0.13245215  0.79144935  0.46553532    -0.71730
O409        O  0.06006428  0.78583655  0.46596824    -0.71660
O410        O  0.06679155  0.69791739  0.03860576    -0.71640
O411        O  0.06087985  0.78561013  0.03881459    -0.71620
O412        O  0.06613112  0.69814994  0.46565915    -0.71680
Ni413      Ni  0.13841983  0.74776090  0.00183197     1.25410
Ni414      Ni  0.06083868  0.74174730  0.00228047     1.25360
C415        C  0.10329586  0.68677945  0.45355892     0.90580
C416        C  0.09623616  0.80229447  0.05075279     0.90510
C417        C  0.10414368  0.68642086  0.05023893     0.90540
C418        C  0.09514479  0.80260196  0.45363833     0.90710
C419        C  0.37764023  0.91909730  0.39006511     0.00340
C420        C  0.37680391  0.91999340  0.11387875     0.00340
C421        C  0.12326368  0.57999177  0.11341397     0.00340
C422        C  0.12262185  0.58100251  0.38980736     0.00340
C423        C  0.27106221  0.99324335  0.00124729     0.03390
C424        C  0.22936376  0.50696316  0.00125683     0.03390
O425        O  0.36169635  0.79658469  0.46586851    -0.71600
O426        O  0.36669931  0.70864620  0.03845621    -0.71630
O427        O  0.36080660  0.79628018  0.03866047    -0.71680
O428        O  0.36749439  0.70902614  0.46564747    -0.71730
O429        O  0.43989158  0.71449412  0.46620952    -0.71660
O430        O  0.43317618  0.80188623  0.03936059    -0.71640
O431        O  0.43909615  0.71415557  0.03903890    -0.71620
O432        O  0.43407441  0.80217531  0.46640674    -0.71680
Ni433      Ni  0.36159969  0.75240501  0.00214474     1.25410
Ni434      Ni  0.43918711  0.75830909  0.00278871     1.25360
C435        C  0.39697642  0.81366142  0.45422372     0.90580
C436        C  0.40374420  0.69736156  0.05080216     0.90510
C437        C  0.39579203  0.81335790  0.05092659     0.90540
C438        C  0.40476505  0.69789701  0.45373853     0.90710
O439        O  0.19837088  0.93640251  0.21619486    -0.71600
O440        O  0.28625616  0.94020252  0.28909548    -0.71630
O441        O  0.28616775  0.94148159  0.21630878    -0.71680
O442        O  0.19841659  0.93511700  0.28914171    -0.71730
O443        O  0.20261290  0.86273254  0.28828577    -0.71660
O444        O  0.29032596  0.86907430  0.21551200    -0.71640
O445        O  0.29042585  0.86779417  0.28830163    -0.71620
O446        O  0.20261463  0.86401447  0.21543403    -0.71680
Ni447      Ni  0.24221950  0.94090789  0.25272808     1.25410
Ni448      Ni  0.24666443  0.86331242  0.25186136     1.25320
C449        C  0.18625206  0.89948879  0.20383387     0.90580
C450        C  0.30237781  0.90467190  0.30077614     0.90510
C451        C  0.30217560  0.90633805  0.20377282     0.90540
C452        C  0.18621265  0.89781439  0.30062519     0.90710
C453        C  0.08021340  0.87772902  0.36417106     0.00340
C454        C  0.08125880  0.87794228  0.13975375     0.00340
C455        C  0.41913615  0.62170044  0.13969776     0.00340
C456        C  0.41918095  0.62269888  0.36424649     0.00340
C457        C  0.49155908  0.72975278  0.25156209     0.03390
C458        C  0.00759667  0.77066817  0.25159414     0.03390
O459        O  0.29720875  0.63693799  0.28832862    -0.71600
O460        O  0.20979364  0.63118838  0.21518635    -0.71630
O461        O  0.20945319  0.63188581  0.28798152    -0.71680
O462        O  0.29754260  0.63623077  0.21546023    -0.71730
O463        O  0.30175128  0.56383812  0.21589770    -0.71660
O464        O  0.21360623  0.55947187  0.28845448    -0.71640
O465        O  0.21394317  0.55877527  0.21566071    -0.71620
O466        O  0.30141381  0.56454749  0.28885892    -0.71680
Ni467      Ni  0.25333135  0.63665274  0.25172123     1.25410
Ni468      Ni  0.25776265  0.55905114  0.25223737     1.25360
C469        C  0.31352140  0.60176636  0.30059788     0.90580
C470        C  0.19794820  0.59400940  0.20326044     0.90510
C471        C  0.19750269  0.59492491  0.30028300     0.90540
C472        C  0.31394995  0.60083382  0.20376452     0.90710
C473        C  0.42264613  0.69308219  0.32899459    -0.10520
C474        C  0.44307198  0.65390904  0.33898971     0.11630
C475        C  0.48361884  0.64408825  0.32322986    -0.10520
C476        C  0.50098701  0.67059788  0.29641771    -0.10520
C477        C  0.47864060  0.70756044  0.28501693     0.11630
C478        C  0.44014280  0.71946400  0.30219418    -0.10520
H479        H  0.39179062  0.70204077  0.34073640     0.15620
H480        H  0.50137125  0.61511410  0.33019219     0.15620
H481        H  0.53103557  0.66127146  0.28354559     0.15620
H482        H  0.42243722  0.74789320  0.29346428     0.15620
C483        C  0.34708204  0.60449194  0.32735288    -0.10440
C484        C  0.37796608  0.61033422  0.34681125    -0.12000
C485        C  0.42207005  0.69207940  0.17489245    -0.10520
C486        C  0.44306919  0.65337031  0.16455162     0.11630
C487        C  0.48431123  0.64450287  0.17952639    -0.10520
C488        C  0.50179672  0.67136148  0.20609291    -0.10520
C489        C  0.47880760  0.70766846  0.21801146     0.11630
C490        C  0.43963077  0.71874314  0.20146495    -0.10520
H491        H  0.39071471  0.70037206  0.16368044     0.15620
H492        H  0.50254178  0.61598641  0.17215355     0.15620
H493        H  0.53238099  0.66271297  0.21846844     0.15620
H494        H  0.42144925  0.74667137  0.21058819     0.15620
C495        C  0.37838930  0.60886132  0.15758442    -0.10440
C496        C  0.34763403  0.60307936  0.17714497    -0.12000
C497        C  0.07950477  0.80887568  0.17674380    -0.10520
C498        C  0.05751920  0.84634065  0.16476983     0.11630
C499        C  0.01516037  0.85389831  0.17797191    -0.10520
C500        C  0.99736580  0.82714934  0.20446728    -0.10520
C501        C  0.02125863  0.79235400  0.21814285     0.11630
C502        C  0.06175994  0.78249595  0.20340010    -0.10520
H503        H  0.11166614  0.80145284  0.16677569     0.15620
H504        H  0.99607961  0.88120962  0.16907112     0.15620
H505        H  0.96575088  0.83476730  0.21543610     0.15620
H506        H  0.08059381  0.75570117  0.21387959     0.15620
C507        C  0.99907736  0.83154997  0.29494614    -0.10520
C508        C  0.01995040  0.79310098  0.28511585     0.11630
C509        C  0.05701010  0.77989323  0.30379959    -0.10520
C510        C  0.07472463  0.80634653  0.33047254    -0.10520
C511        C  0.05576918  0.84670631  0.33908354     0.11630
C512        C  0.01650622  0.85799749  0.32179039    -0.10520
H513        H  0.97026350  0.84204984  0.28078915     0.15620
H514        H  0.07368628  0.75038726  0.29623095     0.15620
H515        H  0.10467936  0.79637119  0.34323448     0.15620
H516        H  0.00006327  0.88814500  0.32739541     0.15620
C517        C  0.12196423  0.89132597  0.15750073    -0.10440
C518        C  0.15268080  0.89736996  0.17708196    -0.12000
C519        C  0.15245365  0.89494176  0.32716888    -0.10440
C520        C  0.12147750  0.88937715  0.34654868    -0.12000
C521        C  0.40993417  0.64384553  0.10565463    -0.10440
C522        C  0.40579655  0.66638548  0.07944243    -0.12000
C523        C  0.40722538  0.66735913  0.42477896    -0.10440
C524        C  0.41095123  0.64503623  0.39838911    -0.12000
C525        C  0.14439566  0.58928920  0.35543048    -0.10440
C526        C  0.16666399  0.59307883  0.32902199    -0.12000
C527        C  0.14309160  0.51574829  0.42989357    -0.10520
C528        C  0.15361104  0.55635636  0.41442697     0.11630
C529        C  0.19340690  0.57618691  0.42411337    -0.10520
C530        C  0.21970530  0.55821496  0.45059950    -0.10520
C531        C  0.20716488  0.51975526  0.46774586     0.11630
C532        C  0.16962185  0.49780429  0.45639441    -0.10520
H533        H  0.11356779  0.49852392  0.42290118     0.15620
H534        H  0.20289519  0.60706037  0.41247959     0.15620
H535        H  0.24855756  0.57563582  0.45922392     0.15620
H536        H  0.15985710  0.46767166  0.46907273     0.15620
C537        C  0.16732484  0.59168730  0.17433469    -0.10440
C538        C  0.14512601  0.58786377  0.14785490    -0.12000
C539        C  0.22009388  0.55754504  0.05243016    -0.10520
C540        C  0.20718115  0.51954093  0.03478732     0.11630
C541        C  0.16948245  0.49767813  0.04585773    -0.10520
C542        C  0.14318087  0.51529122  0.07261366    -0.10520
C543        C  0.15408114  0.55548968  0.08861180     0.11630
C544        C  0.19401463  0.57519326  0.07916799    -0.10520
H545        H  0.24909072  0.57487295  0.04404383     0.15620
H546        H  0.15945326  0.46786494  0.03280763     0.15620
H547        H  0.11352064  0.49818557  0.07937500     0.15620
H548        H  0.20377379  0.60576423  0.09119078     0.15620
C549        C  0.35489589  0.91253805  0.14835362    -0.10440
C550        C  0.33276338  0.90883311  0.17486049    -0.12000
C551        C  0.35821795  0.98402935  0.07190350    -0.10520
C552        C  0.34631990  0.94468827  0.08885775     0.11630
C553        C  0.30573549  0.92588485  0.08005865    -0.10520
C554        C  0.27972958  0.94364674  0.05326663    -0.10520
C555        C  0.29347203  0.98077386  0.03477395     0.11630
C556        C  0.33207911  0.00166341  0.04501043    -0.10520
H557        H  0.38852997  0.00036250  0.07798073     0.15620
H558        H  0.29528612  0.89591813  0.09270541     0.15620
H559        H  0.25008994  0.92698272  0.04549519     0.15620
H560        H  0.34287906  0.03072898  0.03125415     0.15620
C561        C  0.39263717  0.84715164  0.07738667    -0.10440
C562        C  0.38705976  0.87827679  0.09653504    -0.12000
C563        C  0.33332605  0.90636947  0.32947770    -0.10440
C564        C  0.35576856  0.91032906  0.35579486    -0.12000
C565        C  0.35625843  0.98490910  0.42913827    -0.10520
C566        C  0.34648351  0.94366015  0.41452390     0.11630
C567        C  0.30727283  0.92319081  0.42486629    -0.10520
C568        C  0.28105140  0.94112818  0.45135864    -0.10520
C569        C  0.29297983  0.98026090  0.46772602     0.11630
C570        C  0.32971537  0.00289147  0.45557061    -0.10520
H571        H  0.38521335  0.00267202  0.42149997     0.15620
H572        H  0.29829130  0.89185845  0.41380900     0.15620
H573        H  0.25277052  0.92324678  0.46058162     0.15620
H574        H  0.33889909  0.03358914  0.46760961     0.15620
C575        C  0.38889144  0.87806484  0.40807905    -0.10440
C576        C  0.39446445  0.84731126  0.42762194    -0.12000
C577        C  0.10602548  0.65313637  0.42696762    -0.10440
C578        C  0.11173632  0.62227345  0.40757955    -0.12000
C579        C  0.10717273  0.65257679  0.07665450    -0.10440
C580        C  0.11265123  0.62151131  0.09588924    -0.12000
C581        C  0.09427296  0.83297806  0.07961331    -0.10440
C582        C  0.09041987  0.85548150  0.10587150    -0.12000
C583        C  0.08848658  0.85560270  0.39842710    -0.10440
C584        C  0.09252300  0.83331074  0.42481027    -0.12000
C585        C  0.03116806  0.94694075  0.12749084    -0.10440
C586        C  0.05589753  0.91714450  0.13176349    -0.12000
C587        C  0.08219585  0.55678547  0.12028908    -0.10440
C588        C  0.04733378  0.53925980  0.12383314    -0.12000
C589        C  0.46909948  0.55256923  0.12757773    -0.10440
C590        C  0.44431252  0.58231337  0.13189511    -0.12000
C591        C  0.41805360  0.94285670  0.12074700    -0.10440
C592        C  0.45297234  0.96028893  0.12417199    -0.12000
C593        C  0.08168782  0.55768068  0.38277836    -0.10440
C594        C  0.04688299  0.54006582  0.37926079    -0.12000
C595        C  0.05591232  0.91775773  0.37170139    -0.10440
C596        C  0.03132607  0.94771192  0.37584720    -0.12000
C597        C  0.45303726  0.96058481  0.37929865    -0.10440
C598        C  0.41835737  0.94273821  0.38288485    -0.12000
C599        C  0.44395243  0.58296817  0.37184443    -0.10440
C600        C  0.46860093  0.55304703  0.37594118    -0.12000
C601        C  0.49633811  0.97870663  0.87770895     0.03390
C602        C  0.00356049  0.52201311  0.87772808     0.03390
C603        C  0.49639881  0.97813580  0.62560132     0.03390
C604        C  0.00390757  0.52140478  0.62553580     0.03390
O605        O  0.13849852  0.70388392  0.96535092    -0.71600
O606        O  0.13327182  0.79117877  0.53836088    -0.71630
O607        O  0.13916156  0.70358321  0.53813562    -0.71680
O608        O  0.13245243  0.79144890  0.96553565    -0.71730
O609        O  0.06006456  0.78583621  0.96596847    -0.71660
O610        O  0.06679157  0.69791761  0.53860541    -0.71640
O611        O  0.06087973  0.78561033  0.53881439    -0.71620
O612        O  0.06613127  0.69814962  0.96565946    -0.71680
Ni613      Ni  0.13841969  0.74776130  0.50183158     1.25410
Ni614      Ni  0.06083855  0.74174758  0.50228019     1.25360
C615        C  0.10329602  0.68677914  0.95355924     0.90580
C616        C  0.09623604  0.80229465  0.55075259     0.90510
C617        C  0.10414376  0.68642110  0.55023847     0.90540
C618        C  0.09514512  0.80260156  0.95363860     0.90710
C619        C  0.37764052  0.91909797  0.89006575     0.00340
C620        C  0.37680453  0.91999384  0.61387894     0.00340
C621        C  0.12326422  0.57999210  0.61341356     0.00340
C622        C  0.12262216  0.58100282  0.88980703     0.00340
C623        C  0.27106260  0.99324279  0.50124687     0.03390
C624        C  0.22936417  0.50696277  0.50125674     0.03390
O625        O  0.36169576  0.79658439  0.96586843    -0.71600
O626        O  0.36669968  0.70864641  0.53845628    -0.71630
O627        O  0.36080674  0.79628039  0.53866058    -0.71680
O628        O  0.36749374  0.70902579  0.96564739    -0.71730
O629        O  0.43989094  0.71449369  0.96620926    -0.71660
O630        O  0.43317630  0.80188658  0.53936096    -0.71640
O631        O  0.43909651  0.71415592  0.53903916    -0.71620
O632        O  0.43407383  0.80217491  0.96640641    -0.71680
Ni633      Ni  0.36160013  0.75240528  0.50214483     1.25410
Ni634      Ni  0.43918753  0.75830948  0.50278903     1.25360
C635        C  0.39697578  0.81366113  0.95422357     0.90580
C636        C  0.40374456  0.69736181  0.55080230     0.90510
C637        C  0.39579206  0.81335814  0.55092686     0.90540
C638        C  0.40476436  0.69789657  0.95373839     0.90710
O639        O  0.19837108  0.93640195  0.71619507    -0.71600
O640        O  0.28625624  0.94020342  0.78909575    -0.71630
O641        O  0.28616791  0.94148221  0.71630904    -0.71680
O642        O  0.19841673  0.93511676  0.78914191    -0.71730
O643        O  0.20261394  0.86273235  0.78828618    -0.71660
O644        O  0.29032703  0.86907498  0.71551244    -0.71640
O645        O  0.29042684  0.86779512  0.78830208    -0.71620
O646        O  0.20261572  0.86401396  0.71543443    -0.71680
Ni647      Ni  0.24221961  0.94090806  0.75272830     1.25410
Ni648      Ni  0.24666551  0.86331265  0.75186179     1.25320
C649        C  0.18625270  0.89948803  0.70383418     0.90580
C650        C  0.30237832  0.90467304  0.80077651     0.90510
C651        C  0.30217623  0.90633884  0.70377317     0.90540
C652        C  0.18621324  0.89781405  0.80062549     0.90710
C653        C  0.08021388  0.87772867  0.86417133     0.00340
C654        C  0.08125918  0.87794188  0.63975403     0.00340
C655        C  0.41913668  0.62170038  0.63969772     0.00340
C656        C  0.41918095  0.62269840  0.86424651     0.00340
C657        C  0.49155908  0.72975268  0.75156238     0.03390
C658        C  0.00759643  0.77066818  0.75159445     0.03390
O659        O  0.29720919  0.63693800  0.78832836    -0.71600
O660        O  0.20979412  0.63118901  0.71518602    -0.71630
O661        O  0.20945360  0.63188631  0.78798121    -0.71680
O662        O  0.29754310  0.63623093  0.71545998    -0.71730
O663        O  0.30175139  0.56383826  0.71589736    -0.71660
O664        O  0.21360626  0.55947235  0.78845408    -0.71640
O665        O  0.21394329  0.55877587  0.71566032    -0.71620
O666        O  0.30141384  0.56454747  0.78885856    -0.71680
Ni667      Ni  0.25333182  0.63665307  0.75172094     1.25410
Ni668      Ni  0.25776270  0.55905145  0.75223700     1.25360
C669        C  0.31352163  0.60176625  0.80059759     0.90580
C670        C  0.19794852  0.59401010  0.70326006     0.90510
C671        C  0.19750291  0.59492545  0.80028264     0.90540
C672        C  0.31395028  0.60083391  0.70376425     0.90710
C673        C  0.42264610  0.69308183  0.82899477    -0.10520
C674        C  0.44307203  0.65390873  0.83898989     0.11630
C675        C  0.48361899  0.64408810  0.82323014    -0.10520
C676        C  0.50098715  0.67059782  0.79641804    -0.10520
C677        C  0.47864065  0.70756030  0.78501722     0.11630
C678        C  0.44014277  0.71946373  0.80219442    -0.10520
H679        H  0.39179052  0.70204030  0.84073651     0.15620
H680        H  0.50137147  0.61511400  0.83019247     0.15620
H681        H  0.53103579  0.66127151  0.78354598     0.15620
H682        H  0.42243712  0.74789288  0.79346451     0.15620
C683        C  0.34708225  0.60449156  0.82735261    -0.10440
C684        C  0.37796624  0.61033367  0.84681106    -0.12000
C685        C  0.42207047  0.69207934  0.67489244    -0.10520
C686        C  0.44306962  0.65337022  0.66455169     0.11630
C687        C  0.48431152  0.64450269  0.67952669    -0.10520
C688        C  0.50179685  0.67136126  0.70609330    -0.10520
C689        C  0.47880774  0.70766830  0.71801173     0.11630
C690        C  0.43963104  0.71874305  0.70146503    -0.10520
H691        H  0.39071522  0.70037206  0.66368028     0.15620
H692        H  0.50254206  0.61598618  0.67215394     0.15620
H693        H  0.53238102  0.66271268  0.71846897     0.15620
H694        H  0.42144952  0.74667133  0.71058815     0.15620
C695        C  0.37838979  0.60886121  0.65758430    -0.10440
C696        C  0.34763445  0.60307932  0.67714476    -0.12000
C697        C  0.07950396  0.80887472  0.67674335    -0.10520
C698        C  0.05751917  0.84634046  0.66477004     0.11630
C699        C  0.01516087  0.85389913  0.67797285    -0.10520
C700        C  0.99736615  0.82715032  0.70446826    -0.10520
C701        C  0.02125829  0.79235410  0.71814314     0.11630
C702        C  0.06175896  0.78249508  0.70339964    -0.10520
H703        H  0.11166493  0.80145116  0.66677471     0.15620
H704        H  0.99608069  0.88121113  0.66907266     0.15620
H705        H  0.96575169  0.83476902  0.71543760     0.15620
H706        H  0.08059229  0.75569961  0.71387857     0.15620
C707        C  0.99907724  0.83154973  0.79494680    -0.10520
C708        C  0.01995035  0.79310089  0.78511619     0.11630
C709        C  0.05701025  0.77989315  0.80379965    -0.10520
C710        C  0.07472493  0.80634634  0.83047261    -0.10520
C711        C  0.05576949  0.84670604  0.83908385     0.11630
C712        C  0.01650630  0.85799717  0.82179103    -0.10520
H713        H  0.97026315  0.84204954  0.78079010     0.15620
H714        H  0.07368645  0.75038727  0.79623080     0.15620
H715        H  0.10467979  0.79637099  0.84323434     0.15620
H716        H  0.00006328  0.88814457  0.82739631     0.15620
C717        C  0.12196480  0.89132489  0.65750106    -0.10440
C718        C  0.15268142  0.89736875  0.67708229    -0.12000
C719        C  0.15245420  0.89494118  0.82716914    -0.10440
C720        C  0.12147802  0.88937661  0.84654891    -0.12000
C721        C  0.40993470  0.64384555  0.60565462    -0.10440
C722        C  0.40579694  0.66638561  0.57944250    -0.12000
C723        C  0.40722466  0.66735858  0.92477890    -0.10440
C724        C  0.41095084  0.64503564  0.89838911    -0.12000
C725        C  0.14439596  0.58928976  0.85543018    -0.10440
C726        C  0.16666424  0.59307946  0.82902167    -0.12000
C727        C  0.14309183  0.51574852  0.92989315    -0.10520
C728        C  0.15361135  0.55635659  0.91442658     0.11630
C729        C  0.19340718  0.57618713  0.92411310    -0.10520
C730        C  0.21970538  0.55821525  0.95059941    -0.10520
C731        C  0.20716478  0.51975563  0.96774580     0.11630
C732        C  0.16962188  0.49780460  0.95639415    -0.10520
H733        H  0.11356808  0.49852413  0.92290066     0.15620
H734        H  0.20289553  0.60706058  0.91247933     0.15620
H735        H  0.24855758  0.57563612  0.95922394     0.15620
H736        H  0.15985705  0.46767199  0.96907245     0.15620
C737        C  0.16732523  0.59168815  0.67433426    -0.10440
C738        C  0.14512649  0.58786446  0.64785445    -0.12000
C739        C  0.22009450  0.55754505  0.55242986    -0.10520
C740        C  0.20718187  0.51954069  0.53478733     0.11630
C741        C  0.16948327  0.49767789  0.54585796    -0.10520
C742        C  0.14318165  0.51529119  0.57261376    -0.10520
C743        C  0.15408177  0.55548989  0.58861155     0.11630
C744        C  0.19401519  0.57519350  0.57916756    -0.10520
H745        H  0.24909125  0.57487297  0.54404334     0.15620
H746        H  0.15945415  0.46786453  0.53280807     0.15620
H747        H  0.11352150  0.49818550  0.57937525     0.15620
H748        H  0.20377424  0.60576465  0.59119011     0.15620
C749        C  0.35489653  0.91253908  0.64835395    -0.10440
C750        C  0.33276403  0.90883419  0.67486085    -0.12000
C751        C  0.35822129  0.98402756  0.57190063    -0.10520
C752        C  0.34632101  0.94468891  0.58885767     0.11630
C753        C  0.30573497  0.92588756  0.58006065    -0.10520
C754        C  0.27972901  0.94364931  0.55326857    -0.10520
C755        C  0.29347329  0.98077393  0.53477336     0.11630
C756        C  0.33208260  0.00166122  0.54500730    -0.10520
H757        H  0.38853495  0.00035880  0.57797575     0.15620
H758        H  0.29528409  0.89592251  0.59270926     0.15620
H759        H  0.25008778  0.92698682  0.54549905     0.15620
H760        H  0.34288424  0.03072473  0.53124896     0.15620
C761        C  0.39263698  0.84715179  0.57738701    -0.10440
C762        C  0.38705964  0.87827695  0.59653540    -0.12000
C763        C  0.33332648  0.90637104  0.82947811    -0.10440
C764        C  0.35576891  0.91033050  0.85579533    -0.12000
C765        C  0.35626098  0.98490855  0.92914113    -0.10520
C766        C  0.34648422  0.94366110  0.91452472     0.11630
C767        C  0.30727208  0.92319327  0.92486533    -0.10520
C768        C  0.28105036  0.94113077  0.95135743    -0.10520
C769        C  0.29298026  0.98026192  0.96772668     0.11630
C770        C  0.32971788  0.00289086  0.95557346    -0.10520
H771        H  0.38521737  0.00267017  0.92150456     0.15620
H772        H  0.29828934  0.89186195  0.91380668     0.15620
H773        H  0.25276801  0.92325048  0.96057883     0.15620
H774        H  0.33890301  0.03358719  0.96761406     0.15620
C775        C  0.38889084  0.87806509  0.90807939    -0.10440
C776        C  0.39446367  0.84731121  0.92762200    -0.12000
C777        C  0.10602564  0.65313628  0.92696775    -0.10440
C778        C  0.11173653  0.62227360  0.90757943    -0.12000
C779        C  0.10717295  0.65257696  0.57665394    -0.10440
C780        C  0.11265161  0.62151149  0.59588866    -0.12000
C781        C  0.09427288  0.83297800  0.57961330    -0.10440
C782        C  0.09041993  0.85548121  0.60587165    -0.12000
C783        C  0.08848702  0.85560231  0.89842736    -0.10440
C784        C  0.09252341  0.83331033  0.92481052    -0.12000
C785        C  0.03116910  0.94694085  0.62749117    -0.10440
C786        C  0.05589841  0.91714447  0.63176388    -0.12000
C787        C  0.08219646  0.55678574  0.62028882    -0.10440
C788        C  0.04733445  0.53925998  0.62383302    -0.12000
C789        C  0.46910013  0.55256921  0.62757769    -0.10440
C790        C  0.44431312  0.58231333  0.63189505    -0.12000
C791        C  0.41805454  0.94285661  0.62074710    -0.10440
C792        C  0.45297332  0.96028876  0.62417215    -0.12000
C793        C  0.08168818  0.55768094  0.88277794    -0.10440
C794        C  0.04688342  0.54006592  0.87926048    -0.12000
C795        C  0.05591300  0.91775753  0.87170167    -0.10440
C796        C  0.03132686  0.94771182  0.87584750    -0.12000
C797        C  0.45303807  0.96058455  0.87929936    -0.10440
C798        C  0.41835808  0.94273820  0.88288570    -0.12000
C799        C  0.44395259  0.58296777  0.87184449    -0.10440
C800        C  0.46860126  0.55304675  0.87594122    -0.12000
C801        C  0.99633489  0.47870706  0.37770906     0.03390
C802        C  0.50356258  0.02201295  0.37772807     0.03390
C803        C  0.99639458  0.47813632  0.12560091     0.03390
C804        C  0.50391009  0.02140428  0.12553575     0.03390
O805        O  0.63849825  0.20388603  0.46535029    -0.71600
O806        O  0.63327064  0.29118010  0.03836103    -0.71630
O807        O  0.63916111  0.20358456  0.03813588    -0.71680
O808        O  0.63245132  0.29145097  0.46553518    -0.71730
O809        O  0.56006349  0.28583752  0.46596779    -0.71660
O810        O  0.56679116  0.19791836  0.03860535    -0.71640
O811        O  0.56087859  0.28561108  0.03881415    -0.71620
O812        O  0.56613105  0.19815095  0.46565870    -0.71680
Ni813      Ni  0.63841915  0.24776257  0.00183181     1.25410
Ni814      Ni  0.56083804  0.24174825  0.00228003     1.25360
C815        C  0.60329595  0.18678082  0.45355858     0.90580
C816        C  0.59623466  0.30229579  0.05075246     0.90510
C817        C  0.60414338  0.18642218  0.05023860     0.90540
C818        C  0.59514395  0.30260326  0.45363806     0.90710
C819        C  0.87763791  0.41909704  0.39006558     0.00340
C820        C  0.87680179  0.41999146  0.11387862     0.00340
C821        C  0.62326596  0.07999338  0.11341333     0.00340
C822        C  0.62262370  0.08100404  0.38980719     0.00340
C823        C  0.77105766  0.49323920  0.00124829     0.03390
C824        C  0.72936848  0.00696789  0.00125629     0.03390
O825        O  0.86169515  0.29658300  0.46586876    -0.71600
O826        O  0.86670115  0.20864475  0.03845651    -0.71630
O827        O  0.86080728  0.29627862  0.03866075    -0.71680
O828        O  0.86749461  0.20902448  0.46564776    -0.71730
O829        O  0.93989174  0.21449358  0.46620875    -0.71660
O830        O  0.93317680  0.30188572  0.03935971    -0.71640
O831        O  0.93909793  0.21415515  0.03903815    -0.71620
O832        O  0.93407313  0.30217470  0.46640581    -0.71680
Ni833      Ni  0.86160008  0.25240339  0.00214505     1.25410
Ni834      Ni  0.93918742  0.25830861  0.00278783     1.25360
C835        C  0.89697467  0.31366027  0.45422337     0.90580
C836        C  0.90374645  0.19736068  0.05080198     0.90510
C837        C  0.89579277  0.31335682  0.05092631     0.90540
C838        C  0.90476521  0.19789587  0.45373832     0.90710
O839        O  0.69836920  0.43640299  0.21619431    -0.71600
O840        O  0.78625490  0.44020375  0.28909463    -0.71630
O841        O  0.78616620  0.44148088  0.21630788    -0.71680
O842        O  0.69841527  0.43511920  0.28914121    -0.71730
O843        O  0.70261080  0.36273466  0.28828636    -0.71660
O844        O  0.79032347  0.36907351  0.21551231    -0.71640
O845        O  0.79042372  0.36779533  0.28830193    -0.71620
O846        O  0.70261203  0.36401488  0.21543461    -0.71680
Ni847      Ni  0.74221808  0.44090871  0.25272732     1.25410
Ni848      Ni  0.74666206  0.36331316  0.25186184     1.25320
C849        C  0.68624980  0.39948915  0.20383393     0.90580
C850        C  0.80237613  0.40467321  0.30077587     0.90510
C851        C  0.80217359  0.40633679  0.20377251     0.90540
C852        C  0.68621103  0.39781695  0.30062531     0.90710
C853        C  0.58021229  0.37773058  0.36417108     0.00340
C854        C  0.58125630  0.37794325  0.13975356     0.00340
C855        C  0.91913879  0.12169964  0.13969786     0.00340
C856        C  0.91918259  0.12269791  0.36424648     0.00340
C857        C  0.99156040  0.22975249  0.25156257     0.03390
C858        C  0.50759669  0.27066839  0.25159438     0.03390
O859        O  0.79721111  0.13693782  0.28832836    -0.71600
O860        O  0.70979590  0.13118988  0.21518605    -0.71630
O861        O  0.70945542  0.13188697  0.28798127    -0.71680
O862        O  0.79754500  0.13623095  0.21545995    -0.71730
O863        O  0.80175259  0.06383824  0.21589721    -0.71660
O864        O  0.71360740  0.05947297  0.28845401    -0.71640
O865        O  0.71394438  0.05877671  0.21566022    -0.71620
O866        O  0.80141509  0.06454725  0.28885843    -0.71680
Ni867      Ni  0.75333369  0.13665341  0.25172097     1.25410
Ni868      Ni  0.75776384  0.05905175  0.25223688     1.25360
C869        C  0.81352327  0.10176589  0.30059748     0.90580
C870        C  0.69794993  0.09401112  0.20326003     0.90510
C871        C  0.69750435  0.09492619  0.30028264     0.90540
C872        C  0.81395188  0.10083381  0.20376415     0.90710
C873        C  0.92264748  0.19308139  0.32899482    -0.10520
C874        C  0.94307365  0.15390846  0.33899004     0.11630
C875        C  0.98362088  0.14408822  0.32323057    -0.10520
C876        C  0.00098903  0.17059805  0.29641855    -0.10520
C877        C  0.97864223  0.20756027  0.28501754     0.11630
C878        C  0.94014414  0.21946340  0.30219455    -0.10520
H879        H  0.89179172  0.20203959  0.34073638     0.15620
H880        H  0.00137358  0.11511430  0.33019302     0.15620
H881        H  0.03103785  0.16127200  0.28354665     0.15620
H882        H  0.92243826  0.24789234  0.29346449     0.15620
C883        C  0.84708403  0.10449086  0.32735242    -0.10440
C884        C  0.87796806  0.11033291  0.34681085    -0.12000
C885        C  0.92207232  0.19207869  0.17489243    -0.10520
C886        C  0.94307151  0.15336948  0.16455195     0.11630
C887        C  0.98431320  0.14450189  0.17952732    -0.10520
C888        C  0.00179831  0.17136054  0.20609396    -0.10520
C889        C  0.97880917  0.20766773  0.21801207     0.11630
C890        C  0.93963267  0.21874249  0.20146505    -0.10520
H891        H  0.89071723  0.20037144  0.16368000     0.15620
H892        H  0.00254375  0.11598530  0.17215481     0.15620
H893        H  0.03238235  0.16271198  0.21846985     0.15620
H894        H  0.92145114  0.24667087  0.21058792     0.15620
C895        C  0.87839165  0.10886060  0.15758424    -0.10440
C896        C  0.84763617  0.10307896  0.17714467    -0.12000
C897        C  0.57950162  0.30887525  0.17674175    -0.10520
C898        C  0.55751674  0.34634142  0.16476947     0.11630
C899        C  0.51515901  0.35390028  0.17797345    -0.10520
C900        C  0.49736510  0.32715125  0.20446904    -0.10520
C901        C  0.52125742  0.29235457  0.21814289     0.11630
C902        C  0.56175734  0.28249528  0.20339813    -0.10520
H903        H  0.61166217  0.30145161  0.16677225     0.15620
H904        H  0.49607881  0.38121271  0.16907420     0.15620
H905        H  0.46575116  0.33477012  0.21543931     0.15620
H906        H  0.58059080  0.25569942  0.21387623     0.15620
C907        C  0.49907612  0.33154926  0.29494721    -0.10520
C908        C  0.51995062  0.29310144  0.28511594     0.11630
C909        C  0.55701163  0.27989511  0.30379860    -0.10520
C910        C  0.57472584  0.30634873  0.33047147    -0.10520
C911        C  0.55576886  0.34670749  0.33908337     0.11630
C912        C  0.51650477  0.35799717  0.32179130    -0.10520
H913        H  0.47026112  0.34204792  0.28079119     0.15620
H914        H  0.57368887  0.25039002  0.29622924     0.15620
H915        H  0.60468140  0.29637447  0.34323269     0.15620
H916        H  0.50006054  0.38814374  0.32739719     0.15620
C917        C  0.62196175  0.39132658  0.15750078    -0.10440
C918        C  0.65267836  0.39737022  0.17708209    -0.12000
C919        C  0.65245220  0.39494505  0.32716914    -0.10440
C920        C  0.62147615  0.38937994  0.34654893    -0.12000
C921        C  0.90993729  0.14384482  0.10565462    -0.10440
C922        C  0.90579969  0.16638472  0.07944237    -0.12000
C923        C  0.90722558  0.16735789  0.42477884    -0.10440
C924        C  0.91095205  0.14503501  0.39838905    -0.12000
C925        C  0.64439724  0.08929086  0.35543017    -0.10440
C926        C  0.66666557  0.09308040  0.32902165    -0.12000
C927        C  0.64309548  0.01575057  0.42989355    -0.10520
C928        C  0.65361365  0.05635892  0.41442687     0.11630
C929        C  0.69340899  0.07619066  0.42411312    -0.10520
C930        C  0.71970810  0.05821949  0.45059914    -0.10520
C931        C  0.70716897  0.01975938  0.46774548     0.11630
C932        C  0.66962647  0.99780733  0.45639423    -0.10520
H933        H  0.61357212  0.99852535  0.42290129     0.15620
H934        H  0.70289630  0.10706439  0.41247929     0.15620
H935        H  0.74855990  0.07564119  0.45922343     0.15620
H936        H  0.65986271  0.96767443  0.46907261     0.15620
C937        C  0.66732663  0.09168952  0.17433420    -0.10440
C938        C  0.64512796  0.08786593  0.14785432    -0.12000
C939        C  0.72009712  0.05755001  0.05242943    -0.10520
C940        C  0.70718583  0.01954522  0.03478689     0.11630
C941        C  0.66948800  0.99768107  0.04585755    -0.10520
C942        C  0.64318573  0.01529339  0.07261336    -0.10520
C943        C  0.65408439  0.05549243  0.08861117     0.11630
C944        C  0.69401714  0.07519749  0.07916718    -0.10520
H945        H  0.74909328  0.07487893  0.04404292     0.15620
H946        H  0.65945996  0.96786735  0.03280768     0.15620
H947        H  0.61352621  0.99818662  0.07937488     0.15620
H948        H  0.70377511  0.10576895  0.09118978     0.15620
C949        C  0.85489404  0.41253512  0.14835337    -0.10440
C950        C  0.83276143  0.40883066  0.17486021    -0.12000
C951        C  0.85820827  0.48403084  0.07190911    -0.10520
C952        C  0.84631601  0.44468467  0.08885803     0.11630
C953        C  0.80573535  0.42587577  0.08005498    -0.10520
C954        C  0.77972886  0.44363687  0.05326303    -0.10520
C955        C  0.79346643  0.48076921  0.03477516     0.11630
C956        C  0.83206842  0.50166461  0.04501656    -0.10520
H957        H  0.88851651  0.50036881  0.07799046     0.15620
H958        H  0.79528998  0.39590553  0.09269830     0.15620
H959        H  0.75009286  0.42696881  0.04548797     0.15620
H960        H  0.84286393  0.53073462  0.03126428     0.15620
C961        C  0.89263809  0.34715045  0.07738648    -0.10440
C962        C  0.88706000  0.37827538  0.09653493    -0.12000
C963        C  0.83332428  0.40637100  0.32947753    -0.10440
C964        C  0.85576655  0.41033010  0.35579491    -0.12000
C965        C  0.85625934  0.48490548  0.42914368    -0.10520
C966        C  0.84648148  0.44365957  0.41452482     0.11630
C967        C  0.80726831  0.42319231  0.42486358    -0.10520
C968        C  0.78104615  0.44112895  0.45135580    -0.10520
C969        C  0.79297695  0.48025843  0.46772733     0.11630
C970        C  0.82971605  0.50288673  0.45557633    -0.10520
H971        H  0.88521677  0.50266652  0.42150892     0.15620
H972        H  0.79828493  0.39186205  0.41380324     0.15620
H973        H  0.75276274  0.42324909  0.46057553     0.15620
H974        H  0.83890203  0.53358173  0.46761878     0.15620
C975        C  0.88888828  0.37806396  0.40807896    -0.10440
C976        C  0.89446154  0.34731019  0.42762164    -0.12000
C977        C  0.60602598  0.15313777  0.42696724    -0.10440
C978        C  0.61173728  0.12227489  0.40757919    -0.12000
C979        C  0.60717278  0.15257807  0.07665410    -0.10440
C980        C  0.61265214  0.12151265  0.09588874    -0.12000
C981        C  0.59427094  0.33297945  0.07961292    -0.10440
C982        C  0.59041747  0.35548282  0.10587113    -0.12000
C983        C  0.58848576  0.35560413  0.39842697    -0.10440
C984        C  0.59252214  0.33331208  0.42481007    -0.12000
C985        C  0.53116491  0.44694133  0.12749073    -0.10440
C986        C  0.55589485  0.41714545  0.13176345    -0.12000
C987        C  0.58219879  0.05678574  0.12028836    -0.10440
C988        C  0.54733700  0.03925948  0.12383264    -0.12000
C989        C  0.96910259  0.05256866  0.12757793    -0.10440
C990        C  0.94431537  0.08231260  0.13189537    -0.12000
C991        C  0.91805044  0.44285680  0.12074664    -0.10440
C992        C  0.95296898  0.46028950  0.12417155    -0.12000
C993        C  0.58169016  0.05768109  0.38277850    -0.10440
C994        C  0.54688559  0.04006562  0.37926100    -0.12000
C995        C  0.55591033  0.41775862  0.37170161    -0.10440
C996        C  0.53132367  0.44771239  0.37584756    -0.12000
C997        C  0.95303495  0.46058477  0.37929953    -0.10440
C998        C  0.91835530  0.44273775  0.38288584    -0.12000
C999        C  0.94395453  0.08296751  0.37184453    -0.10440
C1000       C  0.96860346  0.05304671  0.37594126    -0.12000
C1001       C  0.99633562  0.47870691  0.87770940     0.03390
C1002       C  0.50356309  0.02201283  0.87772807     0.03390
C1003       C  0.99639549  0.47813632  0.62560110     0.03390
C1004       C  0.50391085  0.02140430  0.62553578     0.03390
O1005       O  0.63849839  0.20388559  0.96535072    -0.71600
O1006       O  0.63327049  0.29118043  0.53836071    -0.71630
O1007       O  0.63916112  0.20358491  0.53813542    -0.71680
O1008       O  0.63245159  0.29145051  0.96553552    -0.71730
O1009       O  0.56006376  0.28583718  0.96596804    -0.71660
O1010       O  0.56679119  0.19791859  0.53860499    -0.71640
O1011       O  0.56087845  0.28561130  0.53881392    -0.71620
O1012       O  0.56613119  0.19815063  0.96565902    -0.71680
Ni1013     Ni  0.63841901  0.24776299  0.50183141     1.25410
Ni1014     Ni  0.56083792  0.24174853  0.50227974     1.25360
C1015       C  0.60329609  0.18678049  0.95355890     0.90580
C1016       C  0.59623452  0.30229599  0.55075225     0.90510
C1017       C  0.60414346  0.18642243  0.55023814     0.90540
C1018       C  0.59514426  0.30260286  0.95363834     0.90710
C1019       C  0.87763821  0.41909771  0.89006621     0.00340
C1020       C  0.87680241  0.41999189  0.61387881     0.00340
C1021       C  0.62326651  0.07999373  0.61341293     0.00340
C1022       C  0.62262401  0.08100435  0.88980685     0.00340
C1023       C  0.77105803  0.49323863  0.50124787     0.03390
C1024       C  0.72936891  0.00696749  0.50125621     0.03390
O1025       O  0.86169456  0.29658271  0.96586866    -0.71600
O1026       O  0.86670156  0.20864495  0.53845660    -0.71630
O1027       O  0.86080744  0.29627882  0.53866087    -0.71680
O1028       O  0.86749396  0.20902414  0.96564766    -0.71730
O1029       O  0.93989110  0.21449315  0.96620850    -0.71660
O1030       O  0.93317694  0.30188606  0.53936007    -0.71640
O1031       O  0.93909832  0.21415550  0.53903842    -0.71620
O1032       O  0.93407255  0.30217431  0.96640548    -0.71680
Ni1033     Ni  0.86160053  0.25240364  0.50214515     1.25410
Ni1034     Ni  0.93918786  0.25830900  0.50278815     1.25360
C1035       C  0.89697403  0.31366000  0.95422322     0.90580
C1036       C  0.90374685  0.19736092  0.55080214     0.90510
C1037       C  0.89579283  0.31335706  0.55092659     0.90540
C1038       C  0.90476452  0.19789544  0.95373818     0.90710
O1039       O  0.69836937  0.43640238  0.71619452    -0.71600
O1040       O  0.78625498  0.44020463  0.78909488    -0.71630
O1041       O  0.78616633  0.44148146  0.71630812    -0.71680
O1042       O  0.69841541  0.43511894  0.78914142    -0.71730
O1043       O  0.70261184  0.36273445  0.78828680    -0.71660
O1044       O  0.79032452  0.36907414  0.71551275    -0.71640
O1045       O  0.79042470  0.36779627  0.78830238    -0.71620
O1046       O  0.70261309  0.36401433  0.71543502    -0.71680
Ni1047     Ni  0.74221817  0.44090884  0.75272754     1.25410
Ni1048     Ni  0.74666314  0.36331335  0.75186228     1.25320
C1049       C  0.68625041  0.39948833  0.70383425     0.90580
C1050       C  0.80237664  0.40467433  0.80077623     0.90510
C1051       C  0.80217419  0.40633754  0.70377285     0.90540
C1052       C  0.68621162  0.39781660  0.80062563     0.90710
C1053       C  0.58021277  0.37773023  0.86417136     0.00340
C1054       C  0.58125663  0.37794284  0.63975383     0.00340
C1055       C  0.91913936  0.12169957  0.63969783     0.00340
C1056       C  0.91918262  0.12269743  0.86424650     0.00340
C1057       C  0.99156049  0.22975236  0.75156288     0.03390
C1058       C  0.50759646  0.27066841  0.75159469     0.03390
O1059       O  0.79721155  0.13693786  0.78832810    -0.71600
O1060       O  0.70979639  0.13119054  0.71518572    -0.71630
O1061       O  0.70945583  0.13188750  0.78798095    -0.71680
O1062       O  0.79754551  0.13623114  0.71545970    -0.71730
O1063       O  0.80175272  0.06383841  0.71589687    -0.71660
O1064       O  0.71360743  0.05947348  0.78845360    -0.71640
O1065       O  0.71394450  0.05877734  0.71565982    -0.71620
O1066       O  0.80141513  0.06454727  0.78885807    -0.71680
Ni1067     Ni  0.75333417  0.13665377  0.75172068     1.25410
Ni1068     Ni  0.75776391  0.05905209  0.75223650     1.25360
C1069       C  0.81352352  0.10176581  0.80059718     0.90580
C1070       C  0.69795026  0.09401185  0.70325964     0.90510
C1071       C  0.69750458  0.09492676  0.80028228     0.90540
C1072       C  0.81395223  0.10083393  0.70376388     0.90710
C1073       C  0.92264752  0.19308104  0.82899502    -0.10520
C1074       C  0.94307375  0.15390814  0.83899024     0.11630
C1075       C  0.98362107  0.14408805  0.82323086    -0.10520
C1076       C  0.00098925  0.17059796  0.79641890    -0.10520
C1077       C  0.97864237  0.20756011  0.78501785     0.11630
C1078       C  0.94014420  0.21946313  0.80219481    -0.10520
H1079       H  0.89179170  0.20203914  0.84073650     0.15620
H1080       H  0.00137384  0.11511417  0.83019333     0.15620
H1081       H  0.03103814  0.16127201  0.78354708     0.15620
H1082       H  0.92243827  0.24789203  0.79346473     0.15620
C1083       C  0.84708426  0.10449052  0.82735213    -0.10440
C1084       C  0.87796825  0.11033239  0.84681065    -0.12000
C1085       C  0.92207283  0.19207863  0.67489241    -0.10520
C1086       C  0.94307199  0.15336936  0.66455203     0.11630
C1087       C  0.98431352  0.14450163  0.67952765    -0.10520
C1088       C  0.00179848  0.17136024  0.70609440    -0.10520
C1089       C  0.97880937  0.20766752  0.71801237     0.11630
C1090       C  0.93963305  0.21874239  0.70146511    -0.10520
H1091       H  0.89071785  0.20037147  0.66367982     0.15620
H1092       H  0.00254403  0.11598497  0.67215527     0.15620
H1093       H  0.03238240  0.16271159  0.71847045     0.15620
H1094       H  0.92145155  0.24667086  0.71058786     0.15620
C1095       C  0.87839218  0.10886051  0.65758412    -0.10440
C1096       C  0.84763661  0.10307895  0.67714447    -0.12000
C1097       C  0.57950067  0.30887420  0.67674117    -0.10520
C1098       C  0.55751665  0.34634123  0.66476965     0.11630
C1099       C  0.51515951  0.35390122  0.67797449    -0.10520
C1100       C  0.49736546  0.32715236  0.70447013    -0.10520
C1101       C  0.52125702  0.29235469  0.71814318     0.11630
C1102       C  0.56175621  0.28249431  0.70339754    -0.10520
H1103       H  0.61166075  0.30144976  0.66677107     0.15620
H1104       H  0.49607996  0.38121444  0.66907595     0.15620
H1105       H  0.46575205  0.33477207  0.71544101     0.15620
H1106       H  0.58058908  0.25569767  0.71387500     0.15620
C1107       C  0.49907596  0.33154896  0.79494793    -0.10520
C1108       C  0.51995058  0.29310134  0.78511628     0.11630
C1109       C  0.55701184  0.27989507  0.80379861    -0.10520
C1110       C  0.57472620  0.30634857  0.83047150    -0.10520
C1111       C  0.55576918  0.34670722  0.83908368     0.11630
C1112       C  0.51650481  0.35799680  0.82179199    -0.10520
H1113       H  0.47026068  0.34204753  0.78079226     0.15620
H1114       H  0.57368915  0.25039010  0.79622900     0.15620
H1115       H  0.60468192  0.29637434  0.84323248     0.15620
H1116       H  0.50006047  0.38814322  0.82739820     0.15620
C1117       C  0.62196228  0.39132545  0.65750113    -0.10440
C1118       C  0.65267894  0.39736894  0.67708244    -0.12000
C1119       C  0.65245276  0.39494446  0.82716942    -0.10440
C1120       C  0.62147668  0.38937941  0.84654919    -0.12000
C1121       C  0.90993787  0.14384484  0.60565462    -0.10440
C1122       C  0.90580012  0.16638485  0.57944245    -0.12000
C1123       C  0.90722487  0.16735735  0.92477879    -0.10440
C1124       C  0.91095167  0.14503443  0.89838905    -0.12000
C1125       C  0.64439754  0.08929143  0.85542987    -0.10440
C1126       C  0.66666582  0.09308106  0.82902133    -0.12000
C1127       C  0.64309571  0.01575081  0.92989312    -0.10520
C1128       C  0.65361395  0.05635915  0.91442647     0.11630
C1129       C  0.69340925  0.07619089  0.92411285    -0.10520
C1130       C  0.71970816  0.05821978  0.95059904    -0.10520
C1131       C  0.70716886  0.01975975  0.96774542     0.11630
C1132       C  0.66962649  0.99780764  0.95639397    -0.10520
H1133       H  0.61357241  0.99852556  0.92290075     0.15620
H1134       H  0.70289663  0.10706460  0.91247903     0.15620
H1135       H  0.74855991  0.07564149  0.95922345     0.15620
H1136       H  0.65986264  0.96767475  0.96907232     0.15620
C1137       C  0.66732704  0.09169039  0.67433377    -0.10440
C1138       C  0.64512845  0.08786663  0.64785387    -0.12000
C1139       C  0.72009775  0.05755003  0.55242913    -0.10520
C1140       C  0.70718657  0.01954499  0.53478691     0.11630
C1141       C  0.66948885  0.99768083  0.54585779    -0.10520
C1142       C  0.64318654  0.01529337  0.57261346    -0.10520
C1143       C  0.65408503  0.05549265  0.58861092     0.11630
C1144       C  0.69401771  0.07519774  0.57916675    -0.10520
H1145       H  0.74909382  0.07487896  0.54404244     0.15620
H1146       H  0.65946087  0.96786694  0.53280813     0.15620
H1147       H  0.61352710  0.99818655  0.57937513     0.15620
H1148       H  0.70377557  0.10576938  0.59118910     0.15620
C1149       C  0.85489466  0.41253612  0.64835370    -0.10440
C1150       C  0.83276206  0.40883170  0.67486056    -0.12000
C1151       C  0.85821155  0.48402907  0.57190628    -0.10520
C1152       C  0.84631709  0.44468530  0.58885795     0.11630
C1153       C  0.80573484  0.42587843  0.58005696    -0.10520
C1154       C  0.77972830  0.44363938  0.55326494    -0.10520
C1155       C  0.79346767  0.48076927  0.53477458     0.11630
C1156       C  0.83207185  0.50166245  0.54501346    -0.10520
H1157       H  0.88852140  0.50036516  0.57798554     0.15620
H1158       H  0.79528798  0.39590984  0.59270210     0.15620
H1159       H  0.75009073  0.42697284  0.54549178     0.15620
H1160       H  0.84286903  0.53073042  0.53125916     0.15620
C1161       C  0.89263791  0.34715060  0.57738683    -0.10440
C1162       C  0.88705989  0.37827554  0.59653529    -0.12000
C1163       C  0.83332472  0.40637257  0.82947793    -0.10440
C1164       C  0.85576691  0.41033154  0.85579537    -0.12000
C1165       C  0.85626187  0.48490495  0.92914651    -0.10520
C1166       C  0.84648219  0.44366052  0.91452562     0.11630
C1167       C  0.80726758  0.42319475  0.92486263    -0.10520
C1168       C  0.78104513  0.44113153  0.95135461    -0.10520
C1169       C  0.79297739  0.48025945  0.96772798     0.11630
C1170       C  0.82971854  0.50288614  0.95557914    -0.10520
H1171       H  0.88522076  0.50266470  0.92151345     0.15620
H1172       H  0.79828301  0.39186552  0.91380095     0.15620
H1173       H  0.75276028  0.42325276  0.96057277     0.15620
H1174       H  0.83890592  0.53357981  0.96762319     0.15620
C1175       C  0.88888770  0.37806422  0.90807930    -0.10440
C1176       C  0.89446078  0.34731015  0.92762170    -0.12000
C1177       C  0.60602612  0.15313767  0.92696737    -0.10440
C1178       C  0.61173747  0.12227504  0.90757906    -0.12000
C1179       C  0.60717300  0.15257824  0.57665354    -0.10440
C1180       C  0.61265253  0.12151283  0.59588815    -0.12000
C1181       C  0.59427083  0.33297941  0.57961290    -0.10440
C1182       C  0.59041749  0.35548254  0.60587127    -0.12000
C1183       C  0.58848619  0.35560373  0.89842724    -0.10440
C1184       C  0.59252254  0.33331166  0.92481033    -0.12000
C1185       C  0.53116593  0.44694145  0.62749107    -0.10440
C1186       C  0.55589571  0.41714544  0.63176385    -0.12000
C1187       C  0.58219942  0.05678600  0.62028810    -0.10440
C1188       C  0.54733770  0.03925964  0.62383253    -0.12000
C1189       C  0.96910326  0.05256862  0.62757790    -0.10440
C1190       C  0.94431599  0.08231254  0.63189531    -0.12000
C1191       C  0.91805136  0.44285672  0.62074675    -0.10440
C1192       C  0.95296994  0.46028935  0.62417171    -0.12000
C1193       C  0.58169052  0.05768135  0.88277807    -0.10440
C1194       C  0.54688602  0.04006571  0.87926067    -0.12000
C1195       C  0.55591100  0.41775842  0.87170189    -0.10440
C1196       C  0.53132446  0.44771230  0.87584786    -0.12000
C1197       C  0.95303576  0.46058452  0.87930023    -0.10440
C1198       C  0.91835601  0.44273776  0.88288667    -0.12000
C1199       C  0.94395468  0.08296710  0.87184460    -0.10440
C1200       C  0.96860378  0.05304642  0.87594130    -0.12000
C1201       C  0.99633739  0.97870680  0.37770860     0.03390
C1202       C  0.50355997  0.52201321  0.37772808     0.03390
C1203       C  0.99639787  0.97813581  0.12560114     0.03390
C1204       C  0.50390683  0.52140475  0.12553576     0.03390
O1205       O  0.63849836  0.70388435  0.46535049    -0.71600
O1206       O  0.63327196  0.79117846  0.03836118    -0.71630
O1207       O  0.63916155  0.70358287  0.03813609    -0.71680
O1208       O  0.63245214  0.79144934  0.46553531    -0.71730
O1209       O  0.56006427  0.78583654  0.46596824    -0.71660
O1210       O  0.56679156  0.69791739  0.03860575    -0.71640
O1211       O  0.56087986  0.78561013  0.03881458    -0.71620
O1212       O  0.56613112  0.69814993  0.46565915    -0.71680
Ni1213     Ni  0.63841984  0.74776090  0.00183196     1.25410
Ni1214     Ni  0.56083869  0.74174730  0.00228046     1.25360
C1215       C  0.60329586  0.68677945  0.45355892     0.90580
C1216       C  0.59623616  0.80229447  0.05075278     0.90510
C1217       C  0.60414369  0.68642086  0.05023892     0.90540
C1218       C  0.59514478  0.80260196  0.45363833     0.90710
C1219       C  0.87764024  0.91909731  0.39006511     0.00340
C1220       C  0.87680389  0.91999339  0.11387876     0.00340
C1221       C  0.62326369  0.57999177  0.11341396     0.00340
C1222       C  0.62262185  0.58100251  0.38980736     0.00340
C1223       C  0.77106221  0.99324335  0.00124729     0.03390
C1224       C  0.72936377  0.50696316  0.00125683     0.03390
O1225       O  0.86169635  0.79658469  0.46586851    -0.71600
O1226       O  0.86669930  0.70864620  0.03845620    -0.71630
O1227       O  0.86080660  0.79628018  0.03866047    -0.71680
O1228       O  0.86749438  0.70902615  0.46564747    -0.71730
O1229       O  0.93989158  0.71449412  0.46620952    -0.71660
O1230       O  0.93317617  0.80188623  0.03936059    -0.71640
O1231       O  0.93909614  0.71415557  0.03903890    -0.71620
O1232       O  0.93407441  0.80217531  0.46640673    -0.71680
Ni1233     Ni  0.86159969  0.75240501  0.00214474     1.25410
Ni1234     Ni  0.93918711  0.75830908  0.00278872     1.25360
C1235       C  0.89697642  0.81366142  0.45422372     0.90580
C1236       C  0.90374419  0.69736156  0.05080216     0.90510
C1237       C  0.89579203  0.81335789  0.05092659     0.90540
C1238       C  0.90476504  0.69789701  0.45373853     0.90710
O1239       O  0.69837087  0.93640246  0.21619487    -0.71600
O1240       O  0.78625615  0.94020252  0.28909548    -0.71630
O1241       O  0.78616774  0.94148156  0.21630878    -0.71680
O1242       O  0.69841658  0.93511699  0.28914172    -0.71730
O1243       O  0.70261290  0.86273252  0.28828580    -0.71660
O1244       O  0.79032595  0.86907427  0.21551201    -0.71640
O1245       O  0.79042586  0.86779417  0.28830165    -0.71620
O1246       O  0.70261462  0.86401442  0.21543406    -0.71680
Ni1247     Ni  0.74221949  0.94090787  0.25272808     1.25410
Ni1248     Ni  0.74666442  0.86331239  0.25186138     1.25320
C1249       C  0.68625204  0.89948874  0.20383389     0.90580
C1250       C  0.80237781  0.90467190  0.30077614     0.90510
C1251       C  0.80217559  0.90633802  0.20377282     0.90540
C1252       C  0.68621265  0.89781438  0.30062521     0.90710
C1253       C  0.58021340  0.87772901  0.36417107     0.00340
C1254       C  0.58125879  0.87794227  0.13975374     0.00340
C1255       C  0.91913613  0.62170044  0.13969777     0.00340
C1256       C  0.91918093  0.62269888  0.36424649     0.00340
C1257       C  0.99155903  0.72975279  0.25156209     0.03390
C1258       C  0.50759667  0.77066817  0.25159413     0.03390
O1259       O  0.79720874  0.63693797  0.28832862    -0.71600
O1260       O  0.70979363  0.63118837  0.21518635    -0.71630
O1261       O  0.70945318  0.63188579  0.28798153    -0.71680
O1262       O  0.79754259  0.63623075  0.21546024    -0.71730
O1263       O  0.80175127  0.56383811  0.21589770    -0.71660
O1264       O  0.71360622  0.55947185  0.28845448    -0.71640
O1265       O  0.71394316  0.55877526  0.21566071    -0.71620
O1266       O  0.80141379  0.56454747  0.28885892    -0.71680
Ni1267     Ni  0.75333134  0.63665272  0.25172123     1.25410
Ni1268     Ni  0.75776263  0.55905113  0.25223738     1.25360
C1269       C  0.81352139  0.60176634  0.30059789     0.90580
C1270       C  0.69794819  0.59400939  0.20326044     0.90510
C1271       C  0.69750268  0.59492490  0.30028300     0.90540
C1272       C  0.81394994  0.60083380  0.20376453     0.90710
C1273       C  0.92264608  0.69308218  0.32899459    -0.10520
C1274       C  0.94307195  0.65390904  0.33898971     0.11630
C1275       C  0.98361881  0.64408827  0.32322986    -0.10520
C1276       C  0.00098697  0.67059789  0.29641771    -0.10520
C1277       C  0.97864055  0.70756045  0.28501693     0.11630
C1278       C  0.94014275  0.71946400  0.30219417    -0.10520
H1279       H  0.89179058  0.70204076  0.34073640     0.15620
H1280       H  0.00137123  0.61511412  0.33019218     0.15620
H1281       H  0.03103554  0.66127149  0.28354558     0.15620
H1282       H  0.92243716  0.74789319  0.29346428     0.15620
C1283       C  0.84708202  0.60449192  0.32735289    -0.10440
C1284       C  0.87796606  0.61033420  0.34681126    -0.12000
C1285       C  0.92207001  0.69207940  0.17489246    -0.10520
C1286       C  0.94306917  0.65337032  0.16455162     0.11630
C1287       C  0.98431122  0.64450291  0.17952638    -0.10520
C1288       C  0.00179670  0.67136152  0.20609289    -0.10520
C1289       C  0.97880757  0.70766848  0.21801146     0.11630
C1290       C  0.93963071  0.71874314  0.20146496    -0.10520
H1291       H  0.89071466  0.70037204  0.16368046     0.15620
H1292       H  0.00254179  0.61598646  0.17215353     0.15620
H1293       H  0.03238098  0.66271303  0.21846842     0.15620
H1294       H  0.92144918  0.74667135  0.21058820     0.15620
C1295       C  0.87838929  0.60886131  0.15758443    -0.10440
C1296       C  0.84763403  0.60307934  0.17714497    -0.12000
C1297       C  0.57950467  0.80887561  0.17674370    -0.10520
C1298       C  0.55751916  0.84634066  0.16476981     0.11630
C1299       C  0.51516039  0.85389840  0.17797198    -0.10520
C1300       C  0.49736582  0.82714944  0.20446735    -0.10520
C1301       C  0.52125860  0.79235401  0.21814284     0.11630
C1302       C  0.56175984  0.78249588  0.20340000    -0.10520
H1303       H  0.61166600  0.80145271  0.16677553     0.15620
H1304       H  0.49607968  0.88120977  0.16907125     0.15620
H1305       H  0.46575095  0.83476746  0.21543623     0.15620
H1306       H  0.58059366  0.75570103  0.21387942     0.15620
C1307       C  0.49907733  0.83154993  0.29494617    -0.10520
C1308       C  0.51995042  0.79310098  0.28511584     0.11630
C1309       C  0.55701015  0.77989326  0.30379954    -0.10520
C1310       C  0.57472467  0.80634656  0.33047250    -0.10520
C1311       C  0.55576919  0.84670631  0.33908354     0.11630
C1312       C  0.51650619  0.85799745  0.32179043    -0.10520
H1313       H  0.47026343  0.84204977  0.28078922     0.15620
H1314       H  0.57368636  0.75038731  0.29623088     0.15620
H1315       H  0.60467943  0.79637123  0.34323442     0.15620
H1316       H  0.50006320  0.88814492  0.32739548     0.15620
C1317       C  0.62196423  0.89132592  0.15750073    -0.10440
C1318       C  0.65268079  0.89736990  0.17708197    -0.12000
C1319       C  0.65245365  0.89494176  0.32716889    -0.10440
C1320       C  0.62147749  0.88937715  0.34654869    -0.12000
C1321       C  0.90993416  0.64384553  0.10565463    -0.10440
C1322       C  0.90579654  0.66638547  0.07944244    -0.12000
C1323       C  0.90722537  0.66735913  0.42477896    -0.10440
C1324       C  0.91095121  0.64503622  0.39838911    -0.12000
C1325       C  0.64439565  0.58928919  0.35543048    -0.10440
C1326       C  0.66666398  0.59307882  0.32902199    -0.12000
C1327       C  0.64309160  0.51574828  0.42989357    -0.10520
C1328       C  0.65361104  0.55635635  0.41442697     0.11630
C1329       C  0.69340690  0.57618690  0.42411337    -0.10520
C1330       C  0.71970530  0.55821496  0.45059950    -0.10520
C1331       C  0.70716489  0.51975526  0.46774586     0.11630
C1332       C  0.66962186  0.49780428  0.45639441    -0.10520
H1333       H  0.61356780  0.49852391  0.42290118     0.15620
H1334       H  0.70289519  0.60706037  0.41247959     0.15620
H1335       H  0.74855756  0.57563583  0.45922392     0.15620
H1336       H  0.65985712  0.46767166  0.46907273     0.15620
C1337       C  0.66732483  0.59168730  0.17433468    -0.10440
C1338       C  0.64512601  0.58786377  0.14785489    -0.12000
C1339       C  0.72009389  0.55754504  0.05243015    -0.10520
C1340       C  0.70718115  0.51954093  0.03478731     0.11630
C1341       C  0.66948245  0.49767813  0.04585772    -0.10520
C1342       C  0.64318087  0.51529123  0.07261366    -0.10520
C1343       C  0.65408114  0.55548968  0.08861179     0.11630
C1344       C  0.69401463  0.57519326  0.07916798    -0.10520
H1345       H  0.74909073  0.57487294  0.04404383     0.15620
H1346       H  0.65945326  0.46786494  0.03280762     0.15620
H1347       H  0.61352064  0.49818558  0.07937499     0.15620
H1348       H  0.70377379  0.60576423  0.09119078     0.15620
C1349       C  0.85489588  0.91253802  0.14835362    -0.10440
C1350       C  0.83276336  0.90883308  0.17486049    -0.12000
C1351       C  0.85821794  0.98402935  0.07190351    -0.10520
C1352       C  0.84631989  0.94468826  0.08885776     0.11630
C1353       C  0.80573548  0.92588484  0.08005864    -0.10520
C1354       C  0.77972958  0.94364673  0.05326662    -0.10520
C1355       C  0.79347203  0.98077385  0.03477395     0.11630
C1356       C  0.83207910  0.00166340  0.04501045    -0.10520
H1357       H  0.88852995  0.00036249  0.07798076     0.15620
H1358       H  0.79528611  0.89591811  0.09270540     0.15620
H1359       H  0.75008995  0.92698270  0.04549518     0.15620
H1360       H  0.84287905  0.03072898  0.03125417     0.15620
C1361       C  0.89263717  0.84715164  0.07738667    -0.10440
C1362       C  0.88705975  0.87827678  0.09653504    -0.12000
C1363       C  0.83332605  0.90636948  0.32947770    -0.10440
C1364       C  0.85576857  0.91032907  0.35579486    -0.12000
C1365       C  0.85625844  0.98490910  0.42913827    -0.10520
C1366       C  0.84648352  0.94366016  0.41452390     0.11630
C1367       C  0.80727284  0.92319081  0.42486629    -0.10520
C1368       C  0.78105141  0.94112818  0.45135864    -0.10520
C1369       C  0.79297983  0.98026090  0.46772602     0.11630
C1370       C  0.82971538  0.00289147  0.45557060    -0.10520
H1371       H  0.88521336  0.00267203  0.42149997     0.15620
H1372       H  0.79829131  0.89185845  0.41380899     0.15620
H1373       H  0.75277052  0.92324678  0.46058162     0.15620
H1374       H  0.83889909  0.03358915  0.46760960     0.15620
C1375       C  0.88889145  0.87806485  0.40807904    -0.10440
C1376       C  0.89446445  0.84731126  0.42762193    -0.12000
C1377       C  0.60602548  0.65313636  0.42696762    -0.10440
C1378       C  0.61173632  0.62227344  0.40757955    -0.12000
C1379       C  0.60717274  0.65257680  0.07665449    -0.10440
C1380       C  0.61265123  0.62151131  0.09588924    -0.12000
C1381       C  0.59427295  0.83297806  0.07961329    -0.10440
C1382       C  0.59041986  0.85548151  0.10587148    -0.12000
C1383       C  0.58848656  0.85560269  0.39842710    -0.10440
C1384       C  0.59252299  0.83331073  0.42481027    -0.12000
C1385       C  0.53116809  0.94694077  0.12749082    -0.10440
C1386       C  0.55589755  0.91714451  0.13176348    -0.12000
C1387       C  0.58219585  0.55678548  0.12028907    -0.10440
C1388       C  0.54733378  0.53925981  0.12383313    -0.12000
C1389       C  0.96909948  0.55256924  0.12757774    -0.10440
C1390       C  0.94431252  0.58231338  0.13189512    -0.12000
C1391       C  0.91805358  0.94285669  0.12074702    -0.10440
C1392       C  0.95297232  0.96028893  0.12417201    -0.12000
C1393       C  0.58168781  0.55768067  0.38277837    -0.10440
C1394       C  0.54688298  0.54006581  0.37926080    -0.12000
C1395       C  0.55591231  0.91775772  0.37170139    -0.10440
C1396       C  0.53132605  0.94771191  0.37584720    -0.12000
C1397       C  0.95303727  0.96058482  0.37929866    -0.10440
C1398       C  0.91835738  0.94273822  0.38288485    -0.12000
C1399       C  0.94395243  0.58296817  0.37184443    -0.10440
C1400       C  0.96860093  0.55304703  0.37594117    -0.12000
C1401       C  0.99633811  0.97870664  0.87770894     0.03390
C1402       C  0.50356048  0.52201310  0.87772807     0.03390
C1403       C  0.99639881  0.97813581  0.62560133     0.03390
C1404       C  0.50390759  0.52140480  0.62553579     0.03390
O1405       O  0.63849853  0.70388392  0.96535091    -0.71600
O1406       O  0.63327182  0.79117878  0.53836087    -0.71630
O1407       O  0.63916157  0.70358321  0.53813562    -0.71680
O1408       O  0.63245244  0.79144890  0.96553564    -0.71730
O1409       O  0.56006456  0.78583621  0.96596846    -0.71660
O1410       O  0.56679158  0.69791761  0.53860542    -0.71640
O1411       O  0.56087973  0.78561033  0.53881439    -0.71620
O1412       O  0.56613128  0.69814962  0.96565945    -0.71680
Ni1413     Ni  0.63841969  0.74776130  0.50183157     1.25410
Ni1414     Ni  0.56083855  0.74174757  0.50228019     1.25360
C1415       C  0.60329603  0.68677913  0.95355923     0.90580
C1416       C  0.59623605  0.80229465  0.55075259     0.90510
C1417       C  0.60414377  0.68642111  0.55023848     0.90540
C1418       C  0.59514512  0.80260156  0.95363859     0.90710
C1419       C  0.87764053  0.91909797  0.89006575     0.00340
C1420       C  0.87680454  0.91999384  0.61387894     0.00340
C1421       C  0.62326424  0.57999211  0.61341357     0.00340
C1422       C  0.62262216  0.58100281  0.88980703     0.00340
C1423       C  0.77106260  0.99324279  0.50124687     0.03390
C1424       C  0.72936418  0.50696277  0.50125674     0.03390
O1425       O  0.86169576  0.79658439  0.96586843    -0.71600
O1426       O  0.86669968  0.70864642  0.53845628    -0.71630
O1427       O  0.86080674  0.79628039  0.53866058    -0.71680
O1428       O  0.86749374  0.70902579  0.96564739    -0.71730
O1429       O  0.93989094  0.71449369  0.96620927    -0.71660
O1430       O  0.93317630  0.80188658  0.53936096    -0.71640
O1431       O  0.93909651  0.71415592  0.53903916    -0.71620
O1432       O  0.93407383  0.80217491  0.96640641    -0.71680
Ni1433     Ni  0.86160013  0.75240528  0.50214483     1.25410
Ni1434     Ni  0.93918753  0.75830948  0.50278903     1.25360
C1435       C  0.89697578  0.81366113  0.95422357     0.90580
C1436       C  0.90374456  0.69736181  0.55080230     0.90510
C1437       C  0.89579207  0.81335814  0.55092686     0.90540
C1438       C  0.90476436  0.69789657  0.95373839     0.90710
O1439       O  0.69837108  0.93640195  0.71619507    -0.71600
O1440       O  0.78625625  0.94020342  0.78909575    -0.71630
O1441       O  0.78616792  0.94148221  0.71630904    -0.71680
O1442       O  0.69841674  0.93511677  0.78914191    -0.71730
O1443       O  0.70261394  0.86273236  0.78828618    -0.71660
O1444       O  0.79032704  0.86907498  0.71551244    -0.71640
O1445       O  0.79042685  0.86779513  0.78830208    -0.71620
O1446       O  0.70261573  0.86401396  0.71543443    -0.71680
Ni1447     Ni  0.74221962  0.94090807  0.75272830     1.25410
Ni1448     Ni  0.74666552  0.86331265  0.75186179     1.25320
C1449       C  0.68625270  0.89948803  0.70383418     0.90580
C1450       C  0.80237833  0.90467304  0.80077651     0.90510
C1451       C  0.80217624  0.90633884  0.70377317     0.90540
C1452       C  0.68621324  0.89781406  0.80062549     0.90710
C1453       C  0.58021389  0.87772867  0.86417133     0.00340
C1454       C  0.58125918  0.87794187  0.63975403     0.00340
C1455       C  0.91913668  0.62170038  0.63969772     0.00340
C1456       C  0.91918096  0.62269839  0.86424651     0.00340
C1457       C  0.99155908  0.72975268  0.75156238     0.03390
C1458       C  0.50759644  0.77066818  0.75159444     0.03390
O1459       O  0.79720919  0.63693800  0.78832837    -0.71600
O1460       O  0.70979413  0.63118901  0.71518603    -0.71630
O1461       O  0.70945360  0.63188630  0.78798122    -0.71680
O1462       O  0.79754311  0.63623093  0.71545999    -0.71730
O1463       O  0.80175140  0.56383826  0.71589737    -0.71660
O1464       O  0.71360626  0.55947234  0.78845408    -0.71640
O1465       O  0.71394329  0.55877587  0.71566032    -0.71620
O1466       O  0.80141385  0.56454747  0.78885857    -0.71680
Ni1467     Ni  0.75333182  0.63665306  0.75172095     1.25410
Ni1468     Ni  0.75776271  0.55905144  0.75223700     1.25360
C1469       C  0.81352163  0.60176624  0.80059759     0.90580
C1470       C  0.69794853  0.59401010  0.70326007     0.90510
C1471       C  0.69750291  0.59492544  0.80028265     0.90540
C1472       C  0.81395029  0.60083391  0.70376426     0.90710
C1473       C  0.92264610  0.69308183  0.82899477    -0.10520
C1474       C  0.94307203  0.65390873  0.83898989     0.11630
C1475       C  0.98361899  0.64408811  0.82323014    -0.10520
C1476       C  0.00098715  0.67059782  0.79641804    -0.10520
C1477       C  0.97864065  0.70756030  0.78501722     0.11630
C1478       C  0.94014277  0.71946373  0.80219442    -0.10520
H1479       H  0.89179052  0.70204030  0.84073651     0.15620
H1480       H  0.00137147  0.61511400  0.83019247     0.15620
H1481       H  0.03103579  0.66127152  0.78354598     0.15620
H1482       H  0.92243712  0.74789287  0.79346451     0.15620
C1483       C  0.84708225  0.60449156  0.82735261    -0.10440
C1484       C  0.87796625  0.61033366  0.84681107    -0.12000
C1485       C  0.92207047  0.69207934  0.67489243    -0.10520
C1486       C  0.94306962  0.65337022  0.66455169     0.11630
C1487       C  0.98431152  0.64450269  0.67952669    -0.10520
C1488       C  0.00179685  0.67136126  0.70609330    -0.10520
C1489       C  0.97880774  0.70766830  0.71801173     0.11630
C1490       C  0.93963105  0.71874306  0.70146502    -0.10520
H1491       H  0.89071522  0.70037206  0.66368028     0.15620
H1492       H  0.00254206  0.61598618  0.67215394     0.15620
H1493       H  0.03238102  0.66271268  0.71846897     0.15620
H1494       H  0.92144953  0.74667133  0.71058815     0.15620
C1495       C  0.87838979  0.60886122  0.65758430    -0.10440
C1496       C  0.84763445  0.60307932  0.67714477    -0.12000
C1497       C  0.57950397  0.80887471  0.67674334    -0.10520
C1498       C  0.55751918  0.84634046  0.66477004     0.11630
C1499       C  0.51516087  0.85389913  0.67797285    -0.10520
C1500       C  0.49736615  0.82715032  0.70446826    -0.10520
C1501       C  0.52125829  0.79235410  0.71814314     0.11630
C1502       C  0.56175896  0.78249507  0.70339963    -0.10520
H1503       H  0.61166493  0.80145115  0.66677471     0.15620
H1504       H  0.49608070  0.88121114  0.66907267     0.15620
H1505       H  0.46575170  0.83476902  0.71543760     0.15620
H1506       H  0.58059229  0.75569960  0.71387856     0.15620
C1507       C  0.49907724  0.83154972  0.79494680    -0.10520
C1508       C  0.51995035  0.79310088  0.78511618     0.11630
C1509       C  0.55701026  0.77989315  0.80379964    -0.10520
C1510       C  0.57472494  0.80634634  0.83047260    -0.10520
C1511       C  0.55576949  0.84670604  0.83908384     0.11630
C1512       C  0.51650630  0.85799717  0.82179103    -0.10520
H1513       H  0.47026315  0.84204953  0.78079011     0.15620
H1514       H  0.57368646  0.75038728  0.79623078     0.15620
H1515       H  0.60467981  0.79637100  0.84323433     0.15620
H1516       H  0.50006328  0.88814456  0.82739631     0.15620
C1517       C  0.62196481  0.89132489  0.65750106    -0.10440
C1518       C  0.65268142  0.89736875  0.67708228    -0.12000
C1519       C  0.65245420  0.89494118  0.82716913    -0.10440
C1520       C  0.62147802  0.88937662  0.84654891    -0.12000
C1521       C  0.90993470  0.64384555  0.60565462    -0.10440
C1522       C  0.90579694  0.66638561  0.57944250    -0.12000
C1523       C  0.90722466  0.66735858  0.92477890    -0.10440
C1524       C  0.91095084  0.64503564  0.89838911    -0.12000
C1525       C  0.64439595  0.58928975  0.85543018    -0.10440
C1526       C  0.66666424  0.59307945  0.82902167    -0.12000
C1527       C  0.64309183  0.51574851  0.92989315    -0.10520
C1528       C  0.65361134  0.55635658  0.91442658     0.11630
C1529       C  0.69340718  0.57618712  0.92411310    -0.10520
C1530       C  0.71970538  0.55821524  0.95059940    -0.10520
C1531       C  0.70716479  0.51975563  0.96774580     0.11630
C1532       C  0.66962188  0.49780459  0.95639415    -0.10520
H1533       H  0.61356808  0.49852412  0.92290066     0.15620
H1534       H  0.70289553  0.60706057  0.91247932     0.15620
H1535       H  0.74855758  0.57563611  0.95922393     0.15620
H1536       H  0.65985705  0.46767198  0.96907245     0.15620
C1537       C  0.66732524  0.59168815  0.67433427    -0.10440
C1538       C  0.64512650  0.58786446  0.64785445    -0.12000
C1539       C  0.72009452  0.55754505  0.55242986    -0.10520
C1540       C  0.70718188  0.51954070  0.53478733     0.11630
C1541       C  0.66948327  0.49767789  0.54585796    -0.10520
C1542       C  0.64318166  0.51529120  0.57261376    -0.10520
C1543       C  0.65408178  0.55548989  0.58861155     0.11630
C1544       C  0.69401520  0.57519350  0.57916756    -0.10520
H1545       H  0.74909127  0.57487296  0.54404334     0.15620
H1546       H  0.65945415  0.46786454  0.53280807     0.15620
H1547       H  0.61352151  0.49818551  0.57937525     0.15620
H1548       H  0.70377426  0.60576465  0.59119011     0.15620
C1549       C  0.85489653  0.91253908  0.64835394    -0.10440
C1550       C  0.83276403  0.90883419  0.67486084    -0.12000
C1551       C  0.85822129  0.98402756  0.57190062    -0.10520
C1552       C  0.84632101  0.94468891  0.58885767     0.11630
C1553       C  0.80573498  0.92588756  0.58006065    -0.10520
C1554       C  0.77972901  0.94364931  0.55326857    -0.10520
C1555       C  0.79347329  0.98077393  0.53477336     0.11630
C1556       C  0.83208260  0.00166123  0.54500730    -0.10520
H1557       H  0.88853495  0.00035880  0.57797574     0.15620
H1558       H  0.79528409  0.89592252  0.59270926     0.15620
H1559       H  0.75008779  0.92698682  0.54549905     0.15620
H1560       H  0.84288424  0.03072473  0.53124896     0.15620
C1561       C  0.89263699  0.84715180  0.57738701    -0.10440
C1562       C  0.88705964  0.87827695  0.59653540    -0.12000
C1563       C  0.83332649  0.90637105  0.82947811    -0.10440
C1564       C  0.85576892  0.91033051  0.85579533    -0.12000
C1565       C  0.85626100  0.98490855  0.92914114    -0.10520
C1566       C  0.84648423  0.94366110  0.91452472     0.11630
C1567       C  0.80727208  0.92319327  0.92486533    -0.10520
C1568       C  0.78105036  0.94113078  0.95135743    -0.10520
C1569       C  0.79298027  0.98026192  0.96772668     0.11630
C1570       C  0.82971790  0.00289086  0.95557347    -0.10520
H1571       H  0.88521739  0.00267016  0.92150457     0.15620
H1572       H  0.79828935  0.89186196  0.91380667     0.15620
H1573       H  0.75276801  0.92325049  0.96057882     0.15620
H1574       H  0.83890303  0.03358718  0.96761408     0.15620
C1575       C  0.88889085  0.87806509  0.90807939    -0.10440
C1576       C  0.89446368  0.84731121  0.92762200    -0.12000
C1577       C  0.60602565  0.65313627  0.92696774    -0.10440
C1578       C  0.61173654  0.62227359  0.90757943    -0.12000
C1579       C  0.60717297  0.65257696  0.57665395    -0.10440
C1580       C  0.61265164  0.62151150  0.59588867    -0.12000
C1581       C  0.59427288  0.83297800  0.57961329    -0.10440
C1582       C  0.59041994  0.85548121  0.60587165    -0.12000
C1583       C  0.58848703  0.85560231  0.89842735    -0.10440
C1584       C  0.59252342  0.83331033  0.92481051    -0.12000
C1585       C  0.53116910  0.94694085  0.62749117    -0.10440
C1586       C  0.55589841  0.91714447  0.63176388    -0.12000
C1587       C  0.58219648  0.55678575  0.62028882    -0.10440
C1588       C  0.54733447  0.53925999  0.62383302    -0.12000
C1589       C  0.96910012  0.55256920  0.62757770    -0.10440
C1590       C  0.94431312  0.58231333  0.63189506    -0.12000
C1591       C  0.91805455  0.94285662  0.62074710    -0.10440
C1592       C  0.95297333  0.96028877  0.62417215    -0.12000
C1593       C  0.58168818  0.55768093  0.88277794    -0.10440
C1594       C  0.54688342  0.54006591  0.87926048    -0.12000
C1595       C  0.55591300  0.91775752  0.87170166    -0.10440
C1596       C  0.53132685  0.94771181  0.87584750    -0.12000
C1597       C  0.95303807  0.96058455  0.87929936    -0.10440
C1598       C  0.91835809  0.94273821  0.88288570    -0.12000
C1599       C  0.94395259  0.58296777  0.87184449    -0.10440
C1600       C  0.96860127  0.55304675  0.87594122    -0.12000
loop_ 
_geom_bond_atom_site_label_1 
_geom_bond_atom_site_label_2 
_geom_bond_distance 
_geom_bond_site_symmetry_2 
_ccdc_geom_bond_type 
C1          C197   1.443       .  S
C1          C996   1.445       .  S
C1         C1202   1.351       .  D
C2          C194   1.443       .  S
C2         C1000   1.444   1_455  S
C2         C1201   1.351   1_445  D
C3          C192   1.443       .  S
C3          C985   1.444       .  S
C3         C1204   1.351       .  D
C4          C188   1.444       .  S
C4          C989   1.444   1_455  S
C4         C1203   1.351   1_445  D
O5           C15   1.280       .  A
O5         Ni213   1.917       .  S
O6           C16   1.279       .  A
O6          Ni13   1.916       .  S
O7           C17   1.280       .  A
O7          Ni13   1.919       .  S
O8           C18   1.279       .  A
O8         Ni213   1.917       .  S
O9           C18   1.280       .  A
O9         Ni214   1.917       .  S
O10          C17   1.280       .  A
O10         Ni14   1.921       .  S
O11          C16   1.280       .  A
O11         Ni14   1.918       .  S
O12          C15   1.281       .  A
O12        Ni214   1.922       .  S
Ni13        O205   1.917   1_554  S
Ni13        O208   1.917   1_554  S
Ni13        Ni14   2.394       .  S
Ni14        O209   1.917   1_554  S
Ni14        O212   1.922   1_554  S
C15         C177   1.437       .  S
C16         C181   1.433       .  S
C17         C179   1.437       .  S
C18         C184   1.434       .  S
C19         C164   1.468       .  S
C19         C175   1.473       .  S
C19         C198   1.471       .  S
C19         C166   1.527       .  S
C20         C149   1.469       .  S
C20         C162   1.474       .  S
C20         C191   1.471       .  S
C20         C152   1.528       .  S
C21         C138   1.469       .  S
C21         C180   1.474       .  S
C21         C187   1.471       .  S
C21         C143   1.528       .  S
C22         C125   1.468       .  S
C22         C178   1.473       .  S
C22         C193   1.470       .  S
C22         C128   1.528       .  S
C23         C424   1.353       .  D
C23         C155   1.479       .  S
C23         C369   1.477   1_554  S
C24         C423   1.353   1_545  D
C24         C140   1.478       .  S
C24         C331   1.478   1_554  S
O25          C35   1.280       .  A
O25        Ni233   1.918       .  S
O26          C36   1.279       .  A
O26         Ni33   1.917       .  S
O27          C37   1.280       .  A
O27         Ni33   1.918       .  S
O28          C38   1.279       .  A
O28        Ni233   1.916       .  S
O29          C38   1.280       .  A
O29        Ni234   1.919       .  S
O30          C37   1.281       .  A
O30         Ni34   1.923       .  S
O31          C36   1.280       .  A
O31         Ni34   1.917       .  S
O32          C35   1.280       .  A
O32        Ni234   1.921       .  S
Ni33        O225   1.918   1_554  S
Ni33        O228   1.916   1_554  S
Ni33        Ni34   2.394       .  S
Ni34        O229   1.919   1_554  S
Ni34        O232   1.921   1_554  S
C35         C176   1.436       .  S
C36         C122   1.433       .  S
C37         C161   1.438       .  S
C38         C123   1.434       .  S
O39          C49   1.280       .  A
O39         Ni47   1.921       .  S
O40          C50   1.280       .  A
O40         Ni47   1.917       .  S
O41          C51   1.280       .  A
O41         Ni47   1.917       .  S
O42          C52   1.280       .  A
O42         Ni47   1.922       .  S
O43          C52   1.280       .  A
O43         Ni48   1.920       .  S
O44          C51   1.279       .  A
O44         Ni48   1.917       .  S
O45          C50   1.279       .  A
O45         Ni48   1.917       .  S
O46          C49   1.280       .  A
O46         Ni48   1.918       .  S
Ni47        Ni48   2.394       .  S
C49         C118   1.437       .  S
C50         C163   1.433       .  S
C51         C150   1.433       .  S
C52         C119   1.438       .  S
C53         C120   1.473       .  S
C53         C183   1.470       .  S
C53         C195   1.472       .  S
C53         C111   1.531       .  S
C54         C117   1.473       .  S
C54         C182   1.468       .  S
C54         C186   1.471       .  S
C54          C98   1.531       .  S
C55          C95   1.473       .  S
C55         C121   1.469       .  S
C55         C190   1.472       .  S
C55          C86   1.531       .  S
C56          C84   1.473       .  S
C56         C124   1.470       .  S
C56         C199   1.472       .  S
C56          C74   1.531       .  S
C57         C858   1.350       .  D
C57          C77   1.476       .  S
C57          C89   1.476       .  S
C58         C857   1.350   1_455  D
C58         C101   1.475       .  S
C58         C108   1.476       .  S
O59          C69   1.280       .  A
O59         Ni67   1.919       .  S
O60          C70   1.279       .  A
O60         Ni67   1.917       .  S
O61          C71   1.279       .  A
O61         Ni67   1.917       .  S
O62          C72   1.280       .  A
O62         Ni67   1.919       .  S
O63          C72   1.280       .  A
O63         Ni68   1.921       .  S
O64          C71   1.280       .  A
O64         Ni68   1.917       .  S
O65          C70   1.280       .  A
O65         Ni68   1.917       .  S
O66          C69   1.280       .  A
O66         Ni68   1.921       .  S
Ni67        Ni68   2.394       .  S
C69          C83   1.437       .  S
C70         C137   1.433       .  S
C71         C126   1.433       .  S
C72          C96   1.437       .  S
C73          C74   1.413       .  A
C73          C78   1.394       .  A
C73          H79   1.083       .  S
C74          C75   1.414       .  A
C75          C76   1.395       .  A
C75          H80   1.080       .  S
C76          C77   1.399       .  A
C76          H81   1.083       .  S
C77          C78   1.398       .  A
C78          H82   1.083       .  S
C83          C84   1.208       .  T
C85          C86   1.413       .  A
C85          C90   1.394       .  A
C85          H91   1.083       .  S
C86          C87   1.414       .  A
C87          C88   1.396       .  A
C87          H92   1.080       .  S
C88          C89   1.399       .  A
C88          H93   1.083       .  S
C89          C90   1.398       .  A
C90          H94   1.083       .  S
C95          C96   1.208       .  T
C97          C98   1.413       .  A
C97         C102   1.393       .  A
C97         H103   1.083       .  S
C98          C99   1.414       .  A
C99         C100   1.396   1_455  A
C99         H104   1.080   1_455  S
C100        C101   1.399   1_655  A
C100        H105   1.083       .  S
C101        C102   1.398       .  A
C102        H106   1.084       .  S
C107        C108   1.399   1_655  A
C107        C112   1.395   1_655  A
C107        H113   1.083       .  S
C108        C109   1.398       .  A
C109        C110   1.394       .  A
C109        H114   1.083       .  S
C110        C111   1.413       .  A
C110        H115   1.083       .  S
C111        C112   1.414       .  A
C112        H116   1.080       .  S
C117        C118   1.208       .  T
C119        C120   1.208       .  T
C121        C122   1.205       .  T
C123        C124   1.206       .  T
C125        C126   1.205       .  T
C127        C128   1.413       .  A
C127        C132   1.397   1_545  A
C127        H133   1.081   1_545  S
C128        C129   1.412       .  A
C129        C130   1.393       .  A
C129        H134   1.083       .  S
C130        C131   1.398       .  A
C130        H135   1.084       .  S
C131        C224   1.478       .  S
C131        C132   1.401   1_545  A
C132        H136   1.082       .  S
C137        C138   1.205       .  T
C139        C140   1.398       .  A
C139        C144   1.393       .  A
C139        H145   1.084       .  S
C140        C141   1.401   1_545  A
C141        C142   1.397   1_565  A
C141        H146   1.082       .  S
C142        C143   1.413       .  A
C142        H147   1.081   1_545  S
C143        C144   1.412       .  A
C144        H148   1.083       .  S
C149        C150   1.206       .  T
C151        C152   1.413       .  A
C151        C156   1.397       .  A
C151        H157   1.081       .  S
C152        C153   1.412       .  A
C153        C154   1.393       .  A
C153        H158   1.083       .  S
C154        C155   1.398       .  A
C154        H159   1.083       .  S
C155        C156   1.401       .  A
C156        H160   1.082       .  S
C161        C162   1.208       .  T
C163        C164   1.205       .  T
C165        C166   1.413       .  A
C165        C170   1.397       .  A
C165        H171   1.081       .  S
C166        C167   1.412       .  A
C167        C168   1.392       .  A
C167        H172   1.083       .  S
C168        C169   1.398       .  A
C168        H173   1.084       .  S
C169        C223   1.477       .  S
C169        C170   1.400       .  A
C170        H174   1.082       .  S
C175        C176   1.208       .  T
C177        C178   1.208       .  T
C179        C180   1.208       .  T
C181        C182   1.206       .  T
C183        C184   1.206       .  T
C185        C803   1.444   1_455  S
C185        C186   1.206       .  T
C187        C188   1.206       .  T
C189        C804   1.444       .  S
C189        C190   1.206       .  T
C191        C192   1.205       .  T
C193        C194   1.205       .  T
C195        C196   1.206       .  T
C196        C801   1.445   1_455  S
C197        C198   1.205       .  T
C199        C200   1.206       .  T
C200        C802   1.444       .  S
C201       C1196   1.445       .  S
C201        C397   1.443       .  S
C201       C1402   1.351       .  D
C202        C394   1.443       .  S
C202       C1200   1.444   1_455  S
C202       C1401   1.351   1_445  D
C203       C1185   1.444       .  S
C203        C392   1.443       .  S
C203       C1404   1.351       .  D
C204        C388   1.444       .  S
C204       C1189   1.444   1_455  S
C204       C1403   1.351   1_445  D
O205        C215   1.280       .  A
O206        C216   1.279       .  A
O206       Ni213   1.916       .  S
O207        C217   1.280       .  A
O207       Ni213   1.919       .  S
O208        C218   1.279       .  A
O209        C218   1.280       .  A
O210        C217   1.280       .  A
O210       Ni214   1.921       .  S
O211        C216   1.280       .  A
O211       Ni214   1.918       .  S
O212        C215   1.281       .  A
Ni213      Ni214   2.394       .  S
C215        C377   1.437       .  S
C216        C381   1.433       .  S
C217        C379   1.437       .  S
C218        C384   1.434       .  S
C219        C364   1.468       .  S
C219        C375   1.473       .  S
C219        C398   1.471       .  S
C219        C366   1.527       .  S
C220        C349   1.469       .  S
C220        C362   1.474       .  S
C220        C391   1.471       .  S
C220        C352   1.528       .  S
C221        C338   1.469       .  S
C221        C380   1.474       .  S
C221        C387   1.471       .  S
C221        C343   1.528       .  S
C222        C325   1.468       .  S
C222        C378   1.473       .  S
C222        C393   1.470       .  S
C222        C328   1.528       .  S
C223        C624   1.353       .  D
C223        C355   1.479       .  S
C224        C623   1.353   1_545  D
C224        C340   1.478       .  S
O225        C235   1.280       .  A
O226        C236   1.279       .  A
O226       Ni233   1.917       .  S
O227        C237   1.280       .  A
O227       Ni233   1.918       .  S
O228        C238   1.279       .  A
O229        C238   1.280       .  A
O230        C237   1.281       .  A
O230       Ni234   1.923       .  S
O231        C236   1.280       .  A
O231       Ni234   1.917       .  S
O232        C235   1.280       .  A
Ni233      Ni234   2.394       .  S
C235        C376   1.436       .  S
C236        C322   1.433       .  S
C237        C361   1.438       .  S
C238        C323   1.434       .  S
O239        C249   1.280       .  A
O239       Ni247   1.921       .  S
O240        C250   1.280       .  A
O240       Ni247   1.917       .  S
O241        C251   1.280       .  A
O241       Ni247   1.917       .  S
O242        C252   1.280       .  A
O242       Ni247   1.922       .  S
O243        C252   1.280       .  A
O243       Ni248   1.920       .  S
O244        C251   1.279       .  A
O244       Ni248   1.917       .  S
O245        C250   1.279       .  A
O245       Ni248   1.917       .  S
O246        C249   1.280       .  A
O246       Ni248   1.918       .  S
Ni247      Ni248   2.394       .  S
C249        C318   1.437       .  S
C250        C363   1.433       .  S
C251        C350   1.433       .  S
C252        C319   1.438       .  S
C253        C320   1.473       .  S
C253        C383   1.470       .  S
C253        C395   1.472       .  S
C253        C311   1.531       .  S
C254        C317   1.473       .  S
C254        C382   1.468       .  S
C254        C386   1.471       .  S
C254        C298   1.531       .  S
C255        C295   1.473       .  S
C255        C321   1.469       .  S
C255        C390   1.472       .  S
C255        C286   1.531       .  S
C256        C284   1.473       .  S
C256        C324   1.470       .  S
C256        C399   1.472       .  S
C256        C274   1.531       .  S
C257       C1058   1.350       .  D
C257        C277   1.476       .  S
C257        C289   1.476       .  S
C258       C1057   1.350   1_455  D
C258        C301   1.475       .  S
C258        C308   1.476       .  S
O259        C269   1.280       .  A
O259       Ni267   1.919       .  S
O260        C270   1.279       .  A
O260       Ni267   1.917       .  S
O261        C271   1.279       .  A
O261       Ni267   1.917       .  S
O262        C272   1.280       .  A
O262       Ni267   1.919       .  S
O263        C272   1.280       .  A
O263       Ni268   1.921       .  S
O264        C271   1.280       .  A
O264       Ni268   1.917       .  S
O265        C270   1.280       .  A
O265       Ni268   1.917       .  S
O266        C269   1.280       .  A
O266       Ni268   1.921       .  S
Ni267      Ni268   2.394       .  S
C269        C283   1.437       .  S
C270        C337   1.433       .  S
C271        C326   1.433       .  S
C272        C296   1.437       .  S
C273        C274   1.413       .  A
C273        C278   1.394       .  A
C273        H279   1.083       .  S
C274        C275   1.414       .  A
C275        C276   1.395       .  A
C275        H280   1.080       .  S
C276        C277   1.399       .  A
C276        H281   1.083       .  S
C277        C278   1.398       .  A
C278        H282   1.083       .  S
C283        C284   1.208       .  T
C285        C286   1.413       .  A
C285        C290   1.394       .  A
C285        H291   1.083       .  S
C286        C287   1.414       .  A
C287        C288   1.396       .  A
C287        H292   1.080       .  S
C288        C289   1.399       .  A
C288        H293   1.083       .  S
C289        C290   1.398       .  A
C290        H294   1.083       .  S
C295        C296   1.208       .  T
C297        C298   1.413       .  A
C297        C302   1.393       .  A
C297        H303   1.083       .  S
C298        C299   1.414       .  A
C299        C300   1.396   1_455  A
C299        H304   1.080   1_455  S
C300        C301   1.399   1_655  A
C300        H305   1.083       .  S
C301        C302   1.398       .  A
C302        H306   1.084       .  S
C307        C308   1.399   1_655  A
C307        C312   1.395   1_655  A
C307        H313   1.083       .  S
C308        C309   1.398       .  A
C309        C310   1.394       .  A
C309        H314   1.083       .  S
C310        C311   1.413       .  A
C310        H315   1.083       .  S
C311        C312   1.414       .  A
C312        H316   1.080       .  S
C317        C318   1.208       .  T
C319        C320   1.208       .  T
C321        C322   1.205       .  T
C323        C324   1.206       .  T
C325        C326   1.205       .  T
C327        C328   1.413       .  A
C327        C332   1.397   1_545  A
C327        H333   1.081   1_545  S
C328        C329   1.412       .  A
C329        C330   1.393       .  A
C329        H334   1.083       .  S
C330        C331   1.398       .  A
C330        H335   1.084       .  S
C331        C332   1.401   1_545  A
C332        H336   1.082       .  S
C337        C338   1.205       .  T
C339        C340   1.398       .  A
C339        C344   1.393       .  A
C339        H345   1.084       .  S
C340        C341   1.401   1_545  A
C341        C342   1.397   1_565  A
C341        H346   1.082       .  S
C342        C343   1.413       .  A
C342        H347   1.081   1_545  S
C343        C344   1.412       .  A
C344        H348   1.083       .  S
C349        C350   1.206       .  T
C351        C352   1.413       .  A
C351        C356   1.397       .  A
C351        H357   1.081       .  S
C352        C353   1.412       .  A
C353        C354   1.393       .  A
C353        H358   1.083       .  S
C354        C355   1.398       .  A
C354        H359   1.083       .  S
C355        C356   1.401       .  A
C356        H360   1.082       .  S
C361        C362   1.208       .  T
C363        C364   1.205       .  T
C365        C366   1.413       .  A
C365        C370   1.397       .  A
C365        H371   1.081       .  S
C366        C367   1.412       .  A
C367        C368   1.392       .  A
C367        H372   1.083       .  S
C368        C369   1.398       .  A
C368        H373   1.084       .  S
C369        C370   1.400       .  A
C370        H374   1.082       .  S
C375        C376   1.208       .  T
C377        C378   1.208       .  T
C379        C380   1.208       .  T
C381        C382   1.206       .  T
C383        C384   1.206       .  T
C385       C1003   1.444   1_455  S
C385        C386   1.206       .  T
C387        C388   1.206       .  T
C389       C1004   1.444       .  S
C389        C390   1.206       .  T
C391        C392   1.205       .  T
C393        C394   1.205       .  T
C395        C396   1.206       .  T
C396       C1001   1.445   1_455  S
C397        C398   1.205       .  T
C399        C400   1.206       .  T
C400       C1002   1.444       .  S
C401       C1396   1.445       .  S
C401        C597   1.443       .  S
C401        C802   1.351   1_565  D
C402        C594   1.443       .  S
C402       C1400   1.444   1_455  S
C402        C801   1.351   1_455  D
C403       C1385   1.444       .  S
C403        C592   1.443       .  S
C403        C804   1.351   1_565  D
C404        C588   1.444       .  S
C404       C1389   1.444   1_455  S
C404        C803   1.351   1_455  D
O405        C415   1.280       .  A
O405       Ni613   1.917       .  S
O406        C416   1.279       .  A
O406       Ni413   1.916       .  S
O407        C417   1.280       .  A
O407       Ni413   1.919       .  S
O408        C418   1.279       .  A
O408       Ni613   1.917       .  S
O409        C418   1.280       .  A
O409       Ni614   1.917       .  S
O410        C417   1.280       .  A
O410       Ni414   1.921       .  S
O411        C416   1.280       .  A
O411       Ni414   1.918       .  S
O412        C415   1.281       .  A
O412       Ni614   1.922       .  S
Ni413       O605   1.917   1_554  S
Ni413       O608   1.917   1_554  S
Ni413      Ni414   2.394       .  S
Ni414       O609   1.917   1_554  S
Ni414       O612   1.922   1_554  S
C415        C577   1.437       .  S
C416        C581   1.433       .  S
C417        C579   1.437       .  S
C418        C584   1.434       .  S
C419        C564   1.468       .  S
C419        C575   1.473       .  S
C419        C598   1.471       .  S
C419        C566   1.527       .  S
C420        C549   1.469       .  S
C420        C562   1.474       .  S
C420        C591   1.471       .  S
C420        C552   1.528       .  S
C421        C538   1.469       .  S
C421        C580   1.474       .  S
C421        C587   1.471       .  S
C421        C543   1.528       .  S
C422        C525   1.468       .  S
C422        C578   1.473       .  S
C422        C593   1.470       .  S
C422        C528   1.528       .  S
C423        C555   1.479       .  S
C423        C769   1.477   1_554  S
C424        C731   1.478   1_554  S
C424        C540   1.478       .  S
O425        C435   1.280       .  A
O425       Ni633   1.918       .  S
O426        C436   1.279       .  A
O426       Ni433   1.917       .  S
O427        C437   1.280       .  A
O427       Ni433   1.918       .  S
O428        C438   1.279       .  A
O428       Ni633   1.916       .  S
O429        C438   1.280       .  A
O429       Ni634   1.919       .  S
O430        C437   1.281       .  A
O430       Ni434   1.923       .  S
O431        C436   1.280       .  A
O431       Ni434   1.917       .  S
O432        C435   1.280       .  A
O432       Ni634   1.921       .  S
Ni433       O625   1.918   1_554  S
Ni433       O628   1.916   1_554  S
Ni433      Ni434   2.394       .  S
Ni434       O629   1.919   1_554  S
Ni434       O632   1.921   1_554  S
C435        C576   1.436       .  S
C436        C522   1.433       .  S
C437        C561   1.438       .  S
C438        C523   1.434       .  S
O439        C449   1.280       .  A
O439       Ni447   1.921       .  S
O440        C450   1.280       .  A
O440       Ni447   1.917       .  S
O441        C451   1.280       .  A
O441       Ni447   1.917       .  S
O442        C452   1.280       .  A
O442       Ni447   1.922       .  S
O443        C452   1.280       .  A
O443       Ni448   1.920       .  S
O444        C451   1.279       .  A
O444       Ni448   1.917       .  S
O445        C450   1.279       .  A
O445       Ni448   1.917       .  S
O446        C449   1.280       .  A
O446       Ni448   1.918       .  S
Ni447      Ni448   2.394       .  S
C449        C518   1.437       .  S
C450        C563   1.433       .  S
C451        C550   1.433       .  S
C452        C519   1.438       .  S
C453        C520   1.473       .  S
C453        C583   1.470       .  S
C453        C595   1.472       .  S
C453        C511   1.531       .  S
C454        C517   1.473       .  S
C454        C582   1.468       .  S
C454        C586   1.471       .  S
C454        C498   1.531       .  S
C455        C495   1.473       .  S
C455        C521   1.469       .  S
C455        C590   1.472       .  S
C455        C486   1.531       .  S
C456        C484   1.473       .  S
C456        C524   1.470       .  S
C456        C599   1.472       .  S
C456        C474   1.531       .  S
C457       C1258   1.350       .  D
C457        C477   1.476       .  S
C457        C489   1.476       .  S
C458       C1257   1.350   1_455  D
C458        C501   1.475       .  S
C458        C508   1.476       .  S
O459        C469   1.280       .  A
O459       Ni467   1.919       .  S
O460        C470   1.279       .  A
O460       Ni467   1.917       .  S
O461        C471   1.279       .  A
O461       Ni467   1.917       .  S
O462        C472   1.280       .  A
O462       Ni467   1.919       .  S
O463        C472   1.280       .  A
O463       Ni468   1.921       .  S
O464        C471   1.280       .  A
O464       Ni468   1.917       .  S
O465        C470   1.280       .  A
O465       Ni468   1.917       .  S
O466        C469   1.280       .  A
O466       Ni468   1.921       .  S
Ni467      Ni468   2.394       .  S
C469        C483   1.437       .  S
C470        C537   1.433       .  S
C471        C526   1.433       .  S
C472        C496   1.437       .  S
C473        C474   1.413       .  A
C473        C478   1.394       .  A
C473        H479   1.083       .  S
C474        C475   1.414       .  A
C475        C476   1.395       .  A
C475        H480   1.080       .  S
C476        C477   1.399       .  A
C476        H481   1.083       .  S
C477        C478   1.398       .  A
C478        H482   1.083       .  S
C483        C484   1.208       .  T
C485        C486   1.413       .  A
C485        C490   1.394       .  A
C485        H491   1.083       .  S
C486        C487   1.414       .  A
C487        C488   1.396       .  A
C487        H492   1.080       .  S
C488        C489   1.399       .  A
C488        H493   1.083       .  S
C489        C490   1.398       .  A
C490        H494   1.083       .  S
C495        C496   1.208       .  T
C497        C498   1.413       .  A
C497        C502   1.393       .  A
C497        H503   1.083       .  S
C498        C499   1.414       .  A
C499        C500   1.396   1_455  A
C499        H504   1.080   1_455  S
C500        C501   1.399   1_655  A
C500        H505   1.083       .  S
C501        C502   1.398       .  A
C502        H506   1.084       .  S
C507        C508   1.399   1_655  A
C507        C512   1.395   1_655  A
C507        H513   1.083       .  S
C508        C509   1.398       .  A
C509        C510   1.394       .  A
C509        H514   1.083       .  S
C510        C511   1.413       .  A
C510        H515   1.083       .  S
C511        C512   1.414       .  A
C512        H516   1.080       .  S
C517        C518   1.208       .  T
C519        C520   1.208       .  T
C521        C522   1.205       .  T
C523        C524   1.206       .  T
C525        C526   1.205       .  T
C527        C528   1.413       .  A
C527        C532   1.397       .  A
C527        H533   1.081       .  S
C528        C529   1.412       .  A
C529        C530   1.393       .  A
C529        H534   1.083       .  S
C530        C531   1.398       .  A
C530        H535   1.084       .  S
C531        C624   1.478       .  S
C531        C532   1.401       .  A
C532        H536   1.082       .  S
C537        C538   1.205       .  T
C539        C540   1.398       .  A
C539        C544   1.393       .  A
C539        H545   1.084       .  S
C540        C541   1.401       .  A
C541        C542   1.397       .  A
C541        H546   1.082       .  S
C542        C543   1.413       .  A
C542        H547   1.081       .  S
C543        C544   1.412       .  A
C544        H548   1.083       .  S
C549        C550   1.206       .  T
C551        C552   1.413       .  A
C551        C556   1.397   1_565  A
C551        H557   1.081   1_565  S
C552        C553   1.412       .  A
C553        C554   1.393       .  A
C553        H558   1.083       .  S
C554        C555   1.398       .  A
C554        H559   1.083       .  S
C555        C556   1.401   1_565  A
C556        H560   1.082       .  S
C561        C562   1.208       .  T
C563        C564   1.205       .  T
C565        C566   1.413       .  A
C565        C570   1.397   1_565  A
C565        H571   1.081   1_565  S
C566        C567   1.412       .  A
C567        C568   1.392       .  A
C567        H572   1.083       .  S
C568        C569   1.398       .  A
C568        H573   1.084       .  S
C569        C623   1.477       .  S
C569        C570   1.400   1_565  A
C570        H574   1.082       .  S
C575        C576   1.208       .  T
C577        C578   1.208       .  T
C579        C580   1.208       .  T
C581        C582   1.206       .  T
C583        C584   1.206       .  T
C585       C1203   1.444   1_455  S
C585        C586   1.206       .  T
C587        C588   1.206       .  T
C589       C1204   1.444       .  S
C589        C590   1.206       .  T
C591        C592   1.205       .  T
C593        C594   1.205       .  T
C595        C596   1.206       .  T
C596       C1201   1.445   1_455  S
C597        C598   1.205       .  T
C599        C600   1.206       .  T
C600       C1202   1.444       .  S
C601       C1596   1.445       .  S
C601        C797   1.443       .  S
C601       C1002   1.351   1_565  D
C602        C794   1.443       .  S
C602       C1600   1.444   1_455  S
C602       C1001   1.351   1_455  D
C603       C1585   1.444       .  S
C603        C792   1.443       .  S
C603       C1004   1.351   1_565  D
C604        C788   1.444       .  S
C604       C1589   1.444   1_455  S
C604       C1003   1.351   1_455  D
O605        C615   1.280       .  A
O606        C616   1.279       .  A
O606       Ni613   1.916       .  S
O607        C617   1.280       .  A
O607       Ni613   1.919       .  S
O608        C618   1.279       .  A
O609        C618   1.280       .  A
O610        C617   1.280       .  A
O610       Ni614   1.921       .  S
O611        C616   1.280       .  A
O611       Ni614   1.918       .  S
O612        C615   1.281       .  A
Ni613      Ni614   2.394       .  S
C615        C777   1.437       .  S
C616        C781   1.433       .  S
C617        C779   1.437       .  S
C618        C784   1.434       .  S
C619        C764   1.468       .  S
C619        C775   1.473       .  S
C619        C798   1.471       .  S
C619        C766   1.527       .  S
C620        C749   1.469       .  S
C620        C762   1.474       .  S
C620        C791   1.471       .  S
C620        C752   1.528       .  S
C621        C738   1.469       .  S
C621        C780   1.474       .  S
C621        C787   1.471       .  S
C621        C743   1.528       .  S
C622        C725   1.468       .  S
C622        C778   1.473       .  S
C622        C793   1.470       .  S
C622        C728   1.528       .  S
C623        C755   1.479       .  S
C624        C740   1.478       .  S
O625        C635   1.280       .  A
O626        C636   1.279       .  A
O626       Ni633   1.917       .  S
O627        C637   1.280       .  A
O627       Ni633   1.918       .  S
O628        C638   1.279       .  A
O629        C638   1.280       .  A
O630        C637   1.281       .  A
O630       Ni634   1.923       .  S
O631        C636   1.280       .  A
O631       Ni634   1.917       .  S
O632        C635   1.280       .  A
Ni633      Ni634   2.394       .  S
C635        C776   1.436       .  S
C636        C722   1.433       .  S
C637        C761   1.438       .  S
C638        C723   1.434       .  S
O639        C649   1.280       .  A
O639       Ni647   1.921       .  S
O640        C650   1.280       .  A
O640       Ni647   1.917       .  S
O641        C651   1.280       .  A
O641       Ni647   1.917       .  S
O642        C652   1.280       .  A
O642       Ni647   1.922       .  S
O643        C652   1.280       .  A
O643       Ni648   1.920       .  S
O644        C651   1.279       .  A
O644       Ni648   1.917       .  S
O645        C650   1.279       .  A
O645       Ni648   1.917       .  S
O646        C649   1.280       .  A
O646       Ni648   1.918       .  S
Ni647      Ni648   2.394       .  S
C649        C718   1.437       .  S
C650        C763   1.433       .  S
C651        C750   1.433       .  S
C652        C719   1.438       .  S
C653        C720   1.473       .  S
C653        C783   1.470       .  S
C653        C795   1.472       .  S
C653        C711   1.531       .  S
C654        C717   1.473       .  S
C654        C782   1.468       .  S
C654        C786   1.471       .  S
C654        C698   1.531       .  S
C655        C695   1.473       .  S
C655        C721   1.469       .  S
C655        C790   1.472       .  S
C655        C686   1.531       .  S
C656        C684   1.473       .  S
C656        C724   1.470       .  S
C656        C799   1.472       .  S
C656        C674   1.531       .  S
C657       C1458   1.350       .  D
C657        C677   1.476       .  S
C657        C689   1.476       .  S
C658       C1457   1.350   1_455  D
C658        C701   1.475       .  S
C658        C708   1.476       .  S
O659        C669   1.280       .  A
O659       Ni667   1.919       .  S
O660        C670   1.279       .  A
O660       Ni667   1.917       .  S
O661        C671   1.279       .  A
O661       Ni667   1.917       .  S
O662        C672   1.280       .  A
O662       Ni667   1.919       .  S
O663        C672   1.280       .  A
O663       Ni668   1.921       .  S
O664        C671   1.280       .  A
O664       Ni668   1.917       .  S
O665        C670   1.280       .  A
O665       Ni668   1.917       .  S
O666        C669   1.280       .  A
O666       Ni668   1.921       .  S
Ni667      Ni668   2.394       .  S
C669        C683   1.437       .  S
C670        C737   1.433       .  S
C671        C726   1.433       .  S
C672        C696   1.437       .  S
C673        C674   1.413       .  A
C673        C678   1.394       .  A
C673        H679   1.083       .  S
C674        C675   1.414       .  A
C675        C676   1.395       .  A
C675        H680   1.080       .  S
C676        C677   1.399       .  A
C676        H681   1.083       .  S
C677        C678   1.398       .  A
C678        H682   1.083       .  S
C683        C684   1.208       .  T
C685        C686   1.413       .  A
C685        C690   1.394       .  A
C685        H691   1.083       .  S
C686        C687   1.414       .  A
C687        C688   1.396       .  A
C687        H692   1.080       .  S
C688        C689   1.399       .  A
C688        H693   1.083       .  S
C689        C690   1.398       .  A
C690        H694   1.083       .  S
C695        C696   1.208       .  T
C697        C698   1.413       .  A
C697        C702   1.393       .  A
C697        H703   1.083       .  S
C698        C699   1.414       .  A
C699        C700   1.396   1_455  A
C699        H704   1.080   1_455  S
C700        C701   1.399   1_655  A
C700        H705   1.083       .  S
C701        C702   1.398       .  A
C702        H706   1.084       .  S
C707        C708   1.399   1_655  A
C707        C712   1.395   1_655  A
C707        H713   1.083       .  S
C708        C709   1.398       .  A
C709        C710   1.394       .  A
C709        H714   1.083       .  S
C710        C711   1.413       .  A
C710        H715   1.083       .  S
C711        C712   1.414       .  A
C712        H716   1.080       .  S
C717        C718   1.208       .  T
C719        C720   1.208       .  T
C721        C722   1.205       .  T
C723        C724   1.206       .  T
C725        C726   1.205       .  T
C727        C728   1.413       .  A
C727        C732   1.397       .  A
C727        H733   1.081       .  S
C728        C729   1.412       .  A
C729        C730   1.393       .  A
C729        H734   1.083       .  S
C730        C731   1.398       .  A
C730        H735   1.084       .  S
C731        C732   1.401       .  A
C732        H736   1.082       .  S
C737        C738   1.205       .  T
C739        C740   1.398       .  A
C739        C744   1.393       .  A
C739        H745   1.084       .  S
C740        C741   1.401       .  A
C741        C742   1.397       .  A
C741        H746   1.082       .  S
C742        C743   1.413       .  A
C742        H747   1.081       .  S
C743        C744   1.412       .  A
C744        H748   1.083       .  S
C749        C750   1.206       .  T
C751        C752   1.413       .  A
C751        C756   1.397   1_565  A
C751        H757   1.081   1_565  S
C752        C753   1.412       .  A
C753        C754   1.393       .  A
C753        H758   1.083       .  S
C754        C755   1.398       .  A
C754        H759   1.083       .  S
C755        C756   1.401   1_565  A
C756        H760   1.082       .  S
C761        C762   1.208       .  T
C763        C764   1.205       .  T
C765        C766   1.413       .  A
C765        C770   1.397   1_565  A
C765        H771   1.081   1_565  S
C766        C767   1.412       .  A
C767        C768   1.392       .  A
C767        H772   1.083       .  S
C768        C769   1.398       .  A
C768        H773   1.084       .  S
C769        C770   1.400   1_565  A
C770        H774   1.082       .  S
C775        C776   1.208       .  T
C777        C778   1.208       .  T
C779        C780   1.208       .  T
C781        C782   1.206       .  T
C783        C784   1.206       .  T
C785       C1403   1.444   1_455  S
C785        C786   1.206       .  T
C787        C788   1.206       .  T
C789       C1404   1.444       .  S
C789        C790   1.206       .  T
C791        C792   1.205       .  T
C793        C794   1.205       .  T
C795        C796   1.206       .  T
C796       C1401   1.445   1_455  S
C797        C798   1.205       .  T
C799        C800   1.206       .  T
C800       C1402   1.444       .  S
C801        C997   1.443       .  S
C802        C994   1.443       .  S
C803        C992   1.443       .  S
C804        C988   1.444       .  S
O805        C815   1.280       .  A
O805      Ni1013   1.917       .  S
O806        C816   1.279       .  A
O806       Ni813   1.916       .  S
O807        C817   1.280       .  A
O807       Ni813   1.919       .  S
O808        C818   1.279       .  A
O808      Ni1013   1.917       .  S
O809        C818   1.280       .  A
O809      Ni1014   1.917       .  S
O810        C817   1.280       .  A
O810       Ni814   1.921       .  S
O811        C816   1.280       .  A
O811       Ni814   1.918       .  S
O812        C815   1.281       .  A
O812      Ni1014   1.922       .  S
Ni813      O1005   1.917   1_554  S
Ni813      O1008   1.917   1_554  S
Ni813      Ni814   2.394       .  S
Ni814      O1009   1.917   1_554  S
Ni814      O1012   1.922   1_554  S
C815        C977   1.437       .  S
C816        C981   1.433       .  S
C817        C979   1.437       .  S
C818        C984   1.434       .  S
C819        C964   1.468       .  S
C819        C975   1.473       .  S
C819        C998   1.471       .  S
C819        C966   1.527       .  S
C820        C949   1.469       .  S
C820        C962   1.474       .  S
C820        C991   1.471       .  S
C820        C952   1.528       .  S
C821        C938   1.469       .  S
C821        C980   1.474       .  S
C821        C987   1.471       .  S
C821        C943   1.528       .  S
C822        C925   1.468       .  S
C822        C978   1.473       .  S
C822        C993   1.470       .  S
C822        C928   1.528       .  S
C823       C1224   1.353       .  D
C823        C955   1.479       .  S
C823       C1169   1.477   1_554  S
C824       C1223   1.353   1_545  D
C824       C1131   1.478   1_554  S
C824        C940   1.478       .  S
O825        C835   1.280       .  A
O825      Ni1033   1.918       .  S
O826        C836   1.279       .  A
O826       Ni833   1.917       .  S
O827        C837   1.280       .  A
O827       Ni833   1.918       .  S
O828        C838   1.279       .  A
O828      Ni1033   1.916       .  S
O829        C838   1.280       .  A
O829      Ni1034   1.919       .  S
O830        C837   1.281       .  A
O830       Ni834   1.923       .  S
O831        C836   1.280       .  A
O831       Ni834   1.917       .  S
O832        C835   1.280       .  A
O832      Ni1034   1.921       .  S
Ni833      O1025   1.918   1_554  S
Ni833      O1028   1.916   1_554  S
Ni833      Ni834   2.394       .  S
Ni834      O1029   1.919   1_554  S
Ni834      O1032   1.921   1_554  S
C835        C976   1.436       .  S
C836        C922   1.433       .  S
C837        C961   1.438       .  S
C838        C923   1.434       .  S
O839        C849   1.280       .  A
O839       Ni847   1.921       .  S
O840        C850   1.280       .  A
O840       Ni847   1.917       .  S
O841        C851   1.280       .  A
O841       Ni847   1.917       .  S
O842        C852   1.280       .  A
O842       Ni847   1.922       .  S
O843        C852   1.280       .  A
O843       Ni848   1.920       .  S
O844        C851   1.279       .  A
O844       Ni848   1.917       .  S
O845        C850   1.279       .  A
O845       Ni848   1.917       .  S
O846        C849   1.280       .  A
O846       Ni848   1.918       .  S
Ni847      Ni848   2.394       .  S
C849        C918   1.437       .  S
C850        C963   1.433       .  S
C851        C950   1.433       .  S
C852        C919   1.438       .  S
C853        C920   1.473       .  S
C853        C983   1.470       .  S
C853        C995   1.472       .  S
C853        C911   1.531       .  S
C854        C917   1.473       .  S
C854        C982   1.468       .  S
C854        C986   1.471       .  S
C854        C898   1.531       .  S
C855        C895   1.473       .  S
C855        C921   1.469       .  S
C855        C990   1.472       .  S
C855        C886   1.531       .  S
C856        C884   1.473       .  S
C856        C924   1.470       .  S
C856        C999   1.472       .  S
C856        C874   1.531       .  S
C857        C877   1.476       .  S
C857        C889   1.476       .  S
C858        C901   1.475       .  S
C858        C908   1.476       .  S
O859        C869   1.280       .  A
O859       Ni867   1.919       .  S
O860        C870   1.279       .  A
O860       Ni867   1.917       .  S
O861        C871   1.279       .  A
O861       Ni867   1.917       .  S
O862        C872   1.280       .  A
O862       Ni867   1.919       .  S
O863        C872   1.280       .  A
O863       Ni868   1.921       .  S
O864        C871   1.280       .  A
O864       Ni868   1.917       .  S
O865        C870   1.280       .  A
O865       Ni868   1.917       .  S
O866        C869   1.280       .  A
O866       Ni868   1.921       .  S
Ni867      Ni868   2.394       .  S
C869        C883   1.437       .  S
C870        C937   1.433       .  S
C871        C926   1.433       .  S
C872        C896   1.437       .  S
C873        C874   1.413       .  A
C873        C878   1.394       .  A
C873        H879   1.083       .  S
C874        C875   1.414       .  A
C875        C876   1.395   1_655  A
C875        H880   1.080   1_655  S
C876        C877   1.399   1_455  A
C876        H881   1.083       .  S
C877        C878   1.398       .  A
C878        H882   1.083       .  S
C883        C884   1.208       .  T
C885        C886   1.413       .  A
C885        C890   1.394       .  A
C885        H891   1.083       .  S
C886        C887   1.414       .  A
C887        C888   1.396   1_655  A
C887        H892   1.080   1_655  S
C888        C889   1.399   1_455  A
C888        H893   1.083       .  S
C889        C890   1.398       .  A
C890        H894   1.083       .  S
C895        C896   1.208       .  T
C897        C898   1.413       .  A
C897        C902   1.393       .  A
C897        H903   1.083       .  S
C898        C899   1.414       .  A
C899        C900   1.396       .  A
C899        H904   1.080       .  S
C900        C901   1.399       .  A
C900        H905   1.083       .  S
C901        C902   1.398       .  A
C902        H906   1.084       .  S
C907        C908   1.399       .  A
C907        C912   1.395       .  A
C907        H913   1.083       .  S
C908        C909   1.398       .  A
C909        C910   1.394       .  A
C909        H914   1.083       .  S
C910        C911   1.413       .  A
C910        H915   1.083       .  S
C911        C912   1.414       .  A
C912        H916   1.080       .  S
C917        C918   1.208       .  T
C919        C920   1.208       .  T
C921        C922   1.205       .  T
C923        C924   1.206       .  T
C925        C926   1.205       .  T
C927        C928   1.413       .  A
C927        C932   1.397   1_545  A
C927        H933   1.081   1_545  S
C928        C929   1.412       .  A
C929        C930   1.393       .  A
C929        H934   1.083       .  S
C930        C931   1.398       .  A
C930        H935   1.084       .  S
C931       C1024   1.478       .  S
C931        C932   1.401   1_545  A
C932        H936   1.082       .  S
C937        C938   1.205       .  T
C939        C940   1.398       .  A
C939        C944   1.393       .  A
C939        H945   1.084       .  S
C940        C941   1.401   1_545  A
C941        C942   1.397   1_565  A
C941        H946   1.082       .  S
C942        C943   1.413       .  A
C942        H947   1.081   1_545  S
C943        C944   1.412       .  A
C944        H948   1.083       .  S
C949        C950   1.206       .  T
C951        C952   1.413       .  A
C951        C956   1.397       .  A
C951        H957   1.081       .  S
C952        C953   1.412       .  A
C953        C954   1.393       .  A
C953        H958   1.083       .  S
C954        C955   1.398       .  A
C954        H959   1.083       .  S
C955        C956   1.401       .  A
C956        H960   1.082       .  S
C961        C962   1.208       .  T
C963        C964   1.205       .  T
C965        C966   1.413       .  A
C965        C970   1.397       .  A
C965        H971   1.081       .  S
C966        C967   1.412       .  A
C967        C968   1.392       .  A
C967        H972   1.083       .  S
C968        C969   1.398       .  A
C968        H973   1.084       .  S
C969       C1023   1.477       .  S
C969        C970   1.400       .  A
C970        H974   1.082       .  S
C975        C976   1.208       .  T
C977        C978   1.208       .  T
C979        C980   1.208       .  T
C981        C982   1.206       .  T
C983        C984   1.206       .  T
C985        C986   1.206       .  T
C987        C988   1.206       .  T
C989        C990   1.206       .  T
C991        C992   1.205       .  T
C993        C994   1.205       .  T
C995        C996   1.206       .  T
C997        C998   1.205       .  T
C999       C1000   1.206       .  T
C1001      C1197   1.443       .  S
C1002      C1194   1.443       .  S
C1003      C1192   1.443       .  S
C1004      C1188   1.444       .  S
O1005      C1015   1.280       .  A
O1006      C1016   1.279       .  A
O1006     Ni1013   1.916       .  S
O1007      C1017   1.280       .  A
O1007     Ni1013   1.919       .  S
O1008      C1018   1.279       .  A
O1009      C1018   1.280       .  A
O1010      C1017   1.280       .  A
O1010     Ni1014   1.921       .  S
O1011      C1016   1.280       .  A
O1011     Ni1014   1.918       .  S
O1012      C1015   1.281       .  A
Ni1013    Ni1014   2.394       .  S
C1015      C1177   1.437       .  S
C1016      C1181   1.433       .  S
C1017      C1179   1.437       .  S
C1018      C1184   1.434       .  S
C1019      C1164   1.468       .  S
C1019      C1175   1.473       .  S
C1019      C1198   1.471       .  S
C1019      C1166   1.527       .  S
C1020      C1149   1.469       .  S
C1020      C1162   1.474       .  S
C1020      C1191   1.471       .  S
C1020      C1152   1.528       .  S
C1021      C1138   1.469       .  S
C1021      C1180   1.474       .  S
C1021      C1187   1.471       .  S
C1021      C1143   1.528       .  S
C1022      C1125   1.468       .  S
C1022      C1178   1.473       .  S
C1022      C1193   1.470       .  S
C1022      C1128   1.528       .  S
C1023      C1424   1.353       .  D
C1023      C1155   1.479       .  S
C1024      C1423   1.353   1_545  D
C1024      C1140   1.478       .  S
O1025      C1035   1.280       .  A
O1026      C1036   1.279       .  A
O1026     Ni1033   1.917       .  S
O1027      C1037   1.280       .  A
O1027     Ni1033   1.918       .  S
O1028      C1038   1.279       .  A
O1029      C1038   1.280       .  A
O1030      C1037   1.281       .  A
O1030     Ni1034   1.923       .  S
O1031      C1036   1.280       .  A
O1031     Ni1034   1.917       .  S
O1032      C1035   1.280       .  A
Ni1033    Ni1034   2.394       .  S
C1035      C1176   1.436       .  S
C1036      C1122   1.433       .  S
C1037      C1161   1.438       .  S
C1038      C1123   1.434       .  S
O1039      C1049   1.280       .  A
O1039     Ni1047   1.921       .  S
O1040      C1050   1.280       .  A
O1040     Ni1047   1.917       .  S
O1041      C1051   1.280       .  A
O1041     Ni1047   1.917       .  S
O1042      C1052   1.280       .  A
O1042     Ni1047   1.922       .  S
O1043      C1052   1.280       .  A
O1043     Ni1048   1.920       .  S
O1044      C1051   1.279       .  A
O1044     Ni1048   1.917       .  S
O1045      C1050   1.279       .  A
O1045     Ni1048   1.917       .  S
O1046      C1049   1.280       .  A
O1046     Ni1048   1.918       .  S
Ni1047    Ni1048   2.394       .  S
C1049      C1118   1.437       .  S
C1050      C1163   1.433       .  S
C1051      C1150   1.433       .  S
C1052      C1119   1.438       .  S
C1053      C1120   1.473       .  S
C1053      C1183   1.470       .  S
C1053      C1195   1.472       .  S
C1053      C1111   1.531       .  S
C1054      C1117   1.473       .  S
C1054      C1182   1.468       .  S
C1054      C1186   1.471       .  S
C1054      C1098   1.531       .  S
C1055      C1095   1.473       .  S
C1055      C1121   1.469       .  S
C1055      C1190   1.472       .  S
C1055      C1086   1.531       .  S
C1056      C1084   1.473       .  S
C1056      C1124   1.470       .  S
C1056      C1199   1.472       .  S
C1056      C1074   1.531       .  S
C1057      C1077   1.476       .  S
C1057      C1089   1.476       .  S
C1058      C1101   1.475       .  S
C1058      C1108   1.476       .  S
O1059      C1069   1.280       .  A
O1059     Ni1067   1.919       .  S
O1060      C1070   1.279       .  A
O1060     Ni1067   1.917       .  S
O1061      C1071   1.279       .  A
O1061     Ni1067   1.917       .  S
O1062      C1072   1.280       .  A
O1062     Ni1067   1.919       .  S
O1063      C1072   1.280       .  A
O1063     Ni1068   1.921       .  S
O1064      C1071   1.280       .  A
O1064     Ni1068   1.917       .  S
O1065      C1070   1.280       .  A
O1065     Ni1068   1.917       .  S
O1066      C1069   1.280       .  A
O1066     Ni1068   1.921       .  S
Ni1067    Ni1068   2.394       .  S
C1069      C1083   1.437       .  S
C1070      C1137   1.433       .  S
C1071      C1126   1.433       .  S
C1072      C1096   1.437       .  S
C1073      C1074   1.413       .  A
C1073      C1078   1.394       .  A
C1073      H1079   1.083       .  S
C1074      C1075   1.414       .  A
C1075      C1076   1.395   1_655  A
C1075      H1080   1.080   1_655  S
C1076      C1077   1.399   1_455  A
C1076      H1081   1.083       .  S
C1077      C1078   1.398       .  A
C1078      H1082   1.083       .  S
C1083      C1084   1.208       .  T
C1085      C1086   1.413       .  A
C1085      C1090   1.394       .  A
C1085      H1091   1.083       .  S
C1086      C1087   1.414       .  A
C1087      C1088   1.396   1_655  A
C1087      H1092   1.080   1_655  S
C1088      C1089   1.399   1_455  A
C1088      H1093   1.083       .  S
C1089      C1090   1.398       .  A
C1090      H1094   1.083       .  S
C1095      C1096   1.208       .  T
C1097      C1098   1.413       .  A
C1097      C1102   1.393       .  A
C1097      H1103   1.083       .  S
C1098      C1099   1.414       .  A
C1099      C1100   1.396       .  A
C1099      H1104   1.080       .  S
C1100      C1101   1.399       .  A
C1100      H1105   1.083       .  S
C1101      C1102   1.398       .  A
C1102      H1106   1.084       .  S
C1107      C1108   1.399       .  A
C1107      C1112   1.395       .  A
C1107      H1113   1.083       .  S
C1108      C1109   1.398       .  A
C1109      C1110   1.394       .  A
C1109      H1114   1.083       .  S
C1110      C1111   1.413       .  A
C1110      H1115   1.083       .  S
C1111      C1112   1.414       .  A
C1112      H1116   1.080       .  S
C1117      C1118   1.208       .  T
C1119      C1120   1.208       .  T
C1121      C1122   1.205       .  T
C1123      C1124   1.206       .  T
C1125      C1126   1.205       .  T
C1127      C1128   1.413       .  A
C1127      C1132   1.397   1_545  A
C1127      H1133   1.081   1_545  S
C1128      C1129   1.412       .  A
C1129      C1130   1.393       .  A
C1129      H1134   1.083       .  S
C1130      C1131   1.398       .  A
C1130      H1135   1.084       .  S
C1131      C1132   1.401   1_545  A
C1132      H1136   1.082       .  S
C1137      C1138   1.205       .  T
C1139      C1140   1.398       .  A
C1139      C1144   1.393       .  A
C1139      H1145   1.084       .  S
C1140      C1141   1.401   1_545  A
C1141      C1142   1.397   1_565  A
C1141      H1146   1.082       .  S
C1142      C1143   1.413       .  A
C1142      H1147   1.081   1_545  S
C1143      C1144   1.412       .  A
C1144      H1148   1.083       .  S
C1149      C1150   1.206       .  T
C1151      C1152   1.413       .  A
C1151      C1156   1.397       .  A
C1151      H1157   1.081       .  S
C1152      C1153   1.412       .  A
C1153      C1154   1.393       .  A
C1153      H1158   1.083       .  S
C1154      C1155   1.398       .  A
C1154      H1159   1.083       .  S
C1155      C1156   1.401       .  A
C1156      H1160   1.082       .  S
C1161      C1162   1.208       .  T
C1163      C1164   1.205       .  T
C1165      C1166   1.413       .  A
C1165      C1170   1.397       .  A
C1165      H1171   1.081       .  S
C1166      C1167   1.412       .  A
C1167      C1168   1.392       .  A
C1167      H1172   1.083       .  S
C1168      C1169   1.398       .  A
C1168      H1173   1.084       .  S
C1169      C1170   1.400       .  A
C1170      H1174   1.082       .  S
C1175      C1176   1.208       .  T
C1177      C1178   1.208       .  T
C1179      C1180   1.208       .  T
C1181      C1182   1.206       .  T
C1183      C1184   1.206       .  T
C1185      C1186   1.206       .  T
C1187      C1188   1.206       .  T
C1189      C1190   1.206       .  T
C1191      C1192   1.205       .  T
C1193      C1194   1.205       .  T
C1195      C1196   1.206       .  T
C1197      C1198   1.205       .  T
C1199      C1200   1.206       .  T
C1201      C1397   1.443       .  S
C1202      C1394   1.443       .  S
C1203      C1392   1.443       .  S
C1204      C1388   1.444       .  S
O1205      C1215   1.280       .  A
O1205     Ni1413   1.917       .  S
O1206      C1216   1.279       .  A
O1206     Ni1213   1.916       .  S
O1207      C1217   1.280       .  A
O1207     Ni1213   1.919       .  S
O1208      C1218   1.279       .  A
O1208     Ni1413   1.917       .  S
O1209      C1218   1.280       .  A
O1209     Ni1414   1.917       .  S
O1210      C1217   1.280       .  A
O1210     Ni1214   1.921       .  S
O1211      C1216   1.280       .  A
O1211     Ni1214   1.918       .  S
O1212      C1215   1.281       .  A
O1212     Ni1414   1.922       .  S
Ni1213     O1405   1.917   1_554  S
Ni1213     O1408   1.917   1_554  S
Ni1213    Ni1214   2.394       .  S
Ni1214     O1409   1.917   1_554  S
Ni1214     O1412   1.922   1_554  S
C1215      C1377   1.437       .  S
C1216      C1381   1.433       .  S
C1217      C1379   1.437       .  S
C1218      C1384   1.434       .  S
C1219      C1364   1.468       .  S
C1219      C1375   1.473       .  S
C1219      C1398   1.471       .  S
C1219      C1366   1.527       .  S
C1220      C1349   1.469       .  S
C1220      C1362   1.474       .  S
C1220      C1391   1.471       .  S
C1220      C1352   1.528       .  S
C1221      C1338   1.469       .  S
C1221      C1380   1.474       .  S
C1221      C1387   1.471       .  S
C1221      C1343   1.528       .  S
C1222      C1325   1.468       .  S
C1222      C1378   1.473       .  S
C1222      C1393   1.470       .  S
C1222      C1328   1.528       .  S
C1223      C1355   1.479       .  S
C1223      C1569   1.477   1_554  S
C1224      C1531   1.478   1_554  S
C1224      C1340   1.478       .  S
O1225      C1235   1.280       .  A
O1225     Ni1433   1.918       .  S
O1226      C1236   1.279       .  A
O1226     Ni1233   1.917       .  S
O1227      C1237   1.280       .  A
O1227     Ni1233   1.918       .  S
O1228      C1238   1.279       .  A
O1228     Ni1433   1.916       .  S
O1229      C1238   1.280       .  A
O1229     Ni1434   1.919       .  S
O1230      C1237   1.281       .  A
O1230     Ni1234   1.923       .  S
O1231      C1236   1.280       .  A
O1231     Ni1234   1.917       .  S
O1232      C1235   1.280       .  A
O1232     Ni1434   1.921       .  S
Ni1233     O1425   1.918   1_554  S
Ni1233     O1428   1.916   1_554  S
Ni1233    Ni1234   2.394       .  S
Ni1234     O1429   1.919   1_554  S
Ni1234     O1432   1.921   1_554  S
C1235      C1376   1.436       .  S
C1236      C1322   1.433       .  S
C1237      C1361   1.438       .  S
C1238      C1323   1.434       .  S
O1239      C1249   1.280       .  A
O1239     Ni1247   1.921       .  S
O1240      C1250   1.280       .  A
O1240     Ni1247   1.917       .  S
O1241      C1251   1.280       .  A
O1241     Ni1247   1.917       .  S
O1242      C1252   1.280       .  A
O1242     Ni1247   1.922       .  S
O1243      C1252   1.280       .  A
O1243     Ni1248   1.920       .  S
O1244      C1251   1.279       .  A
O1244     Ni1248   1.917       .  S
O1245      C1250   1.279       .  A
O1245     Ni1248   1.917       .  S
O1246      C1249   1.280       .  A
O1246     Ni1248   1.918       .  S
Ni1247    Ni1248   2.394       .  S
C1249      C1318   1.437       .  S
C1250      C1363   1.433       .  S
C1251      C1350   1.433       .  S
C1252      C1319   1.438       .  S
C1253      C1320   1.473       .  S
C1253      C1383   1.470       .  S
C1253      C1395   1.472       .  S
C1253      C1311   1.531       .  S
C1254      C1317   1.473       .  S
C1254      C1382   1.468       .  S
C1254      C1386   1.471       .  S
C1254      C1298   1.531       .  S
C1255      C1295   1.473       .  S
C1255      C1321   1.469       .  S
C1255      C1390   1.472       .  S
C1255      C1286   1.531       .  S
C1256      C1284   1.473       .  S
C1256      C1324   1.470       .  S
C1256      C1399   1.472       .  S
C1256      C1274   1.531       .  S
C1257      C1277   1.476       .  S
C1257      C1289   1.476       .  S
C1258      C1301   1.475       .  S
C1258      C1308   1.476       .  S
O1259      C1269   1.280       .  A
O1259     Ni1267   1.919       .  S
O1260      C1270   1.279       .  A
O1260     Ni1267   1.917       .  S
O1261      C1271   1.279       .  A
O1261     Ni1267   1.917       .  S
O1262      C1272   1.280       .  A
O1262     Ni1267   1.919       .  S
O1263      C1272   1.280       .  A
O1263     Ni1268   1.921       .  S
O1264      C1271   1.280       .  A
O1264     Ni1268   1.917       .  S
O1265      C1270   1.280       .  A
O1265     Ni1268   1.917       .  S
O1266      C1269   1.280       .  A
O1266     Ni1268   1.921       .  S
Ni1267    Ni1268   2.394       .  S
C1269      C1283   1.437       .  S
C1270      C1337   1.433       .  S
C1271      C1326   1.433       .  S
C1272      C1296   1.437       .  S
C1273      C1274   1.413       .  A
C1273      C1278   1.394       .  A
C1273      H1279   1.083       .  S
C1274      C1275   1.414       .  A
C1275      C1276   1.395   1_655  A
C1275      H1280   1.080   1_655  S
C1276      C1277   1.399   1_455  A
C1276      H1281   1.083       .  S
C1277      C1278   1.398       .  A
C1278      H1282   1.083       .  S
C1283      C1284   1.208       .  T
C1285      C1286   1.413       .  A
C1285      C1290   1.394       .  A
C1285      H1291   1.083       .  S
C1286      C1287   1.414       .  A
C1287      C1288   1.396   1_655  A
C1287      H1292   1.080   1_655  S
C1288      C1289   1.399   1_455  A
C1288      H1293   1.083       .  S
C1289      C1290   1.398       .  A
C1290      H1294   1.083       .  S
C1295      C1296   1.208       .  T
C1297      C1298   1.413       .  A
C1297      C1302   1.393       .  A
C1297      H1303   1.083       .  S
C1298      C1299   1.414       .  A
C1299      C1300   1.396       .  A
C1299      H1304   1.080       .  S
C1300      C1301   1.399       .  A
C1300      H1305   1.083       .  S
C1301      C1302   1.398       .  A
C1302      H1306   1.084       .  S
C1307      C1308   1.399       .  A
C1307      C1312   1.395       .  A
C1307      H1313   1.083       .  S
C1308      C1309   1.398       .  A
C1309      C1310   1.394       .  A
C1309      H1314   1.083       .  S
C1310      C1311   1.413       .  A
C1310      H1315   1.083       .  S
C1311      C1312   1.414       .  A
C1312      H1316   1.080       .  S
C1317      C1318   1.208       .  T
C1319      C1320   1.208       .  T
C1321      C1322   1.205       .  T
C1323      C1324   1.206       .  T
C1325      C1326   1.205       .  T
C1327      C1328   1.413       .  A
C1327      C1332   1.397       .  A
C1327      H1333   1.081       .  S
C1328      C1329   1.412       .  A
C1329      C1330   1.393       .  A
C1329      H1334   1.083       .  S
C1330      C1331   1.398       .  A
C1330      H1335   1.084       .  S
C1331      C1424   1.478       .  S
C1331      C1332   1.401       .  A
C1332      H1336   1.082       .  S
C1337      C1338   1.205       .  T
C1339      C1340   1.398       .  A
C1339      C1344   1.393       .  A
C1339      H1345   1.084       .  S
C1340      C1341   1.401       .  A
C1341      C1342   1.397       .  A
C1341      H1346   1.082       .  S
C1342      C1343   1.413       .  A
C1342      H1347   1.081       .  S
C1343      C1344   1.412       .  A
C1344      H1348   1.083       .  S
C1349      C1350   1.206       .  T
C1351      C1352   1.413       .  A
C1351      C1356   1.397   1_565  A
C1351      H1357   1.081   1_565  S
C1352      C1353   1.412       .  A
C1353      C1354   1.393       .  A
C1353      H1358   1.083       .  S
C1354      C1355   1.398       .  A
C1354      H1359   1.083       .  S
C1355      C1356   1.401   1_565  A
C1356      H1360   1.082       .  S
C1361      C1362   1.208       .  T
C1363      C1364   1.205       .  T
C1365      C1366   1.413       .  A
C1365      C1370   1.397   1_565  A
C1365      H1371   1.081   1_565  S
C1366      C1367   1.412       .  A
C1367      C1368   1.392       .  A
C1367      H1372   1.083       .  S
C1368      C1369   1.398       .  A
C1368      H1373   1.084       .  S
C1369      C1423   1.477       .  S
C1369      C1370   1.400   1_565  A
C1370      H1374   1.082       .  S
C1375      C1376   1.208       .  T
C1377      C1378   1.208       .  T
C1379      C1380   1.208       .  T
C1381      C1382   1.206       .  T
C1383      C1384   1.206       .  T
C1385      C1386   1.206       .  T
C1387      C1388   1.206       .  T
C1389      C1390   1.206       .  T
C1391      C1392   1.205       .  T
C1393      C1394   1.205       .  T
C1395      C1396   1.206       .  T
C1397      C1398   1.205       .  T
C1399      C1400   1.206       .  T
C1401      C1597   1.443       .  S
C1402      C1594   1.443       .  S
C1403      C1592   1.443       .  S
C1404      C1588   1.444       .  S
O1405      C1415   1.280       .  A
O1406      C1416   1.279       .  A
O1406     Ni1413   1.916       .  S
O1407      C1417   1.280       .  A
O1407     Ni1413   1.919       .  S
O1408      C1418   1.279       .  A
O1409      C1418   1.280       .  A
O1410      C1417   1.280       .  A
O1410     Ni1414   1.921       .  S
O1411      C1416   1.280       .  A
O1411     Ni1414   1.918       .  S
O1412      C1415   1.281       .  A
Ni1413    Ni1414   2.394       .  S
C1415      C1577   1.437       .  S
C1416      C1581   1.433       .  S
C1417      C1579   1.437       .  S
C1418      C1584   1.434       .  S
C1419      C1564   1.468       .  S
C1419      C1575   1.473       .  S
C1419      C1598   1.471       .  S
C1419      C1566   1.527       .  S
C1420      C1549   1.469       .  S
C1420      C1562   1.474       .  S
C1420      C1591   1.471       .  S
C1420      C1552   1.528       .  S
C1421      C1538   1.469       .  S
C1421      C1580   1.474       .  S
C1421      C1587   1.471       .  S
C1421      C1543   1.528       .  S
C1422      C1525   1.468       .  S
C1422      C1578   1.473       .  S
C1422      C1593   1.470       .  S
C1422      C1528   1.528       .  S
C1423      C1555   1.479       .  S
C1424      C1540   1.478       .  S
O1425      C1435   1.280       .  A
O1426      C1436   1.279       .  A
O1426     Ni1433   1.917       .  S
O1427      C1437   1.280       .  A
O1427     Ni1433   1.918       .  S
O1428      C1438   1.279       .  A
O1429      C1438   1.280       .  A
O1430      C1437   1.281       .  A
O1430     Ni1434   1.923       .  S
O1431      C1436   1.280       .  A
O1431     Ni1434   1.917       .  S
O1432      C1435   1.280       .  A
Ni1433    Ni1434   2.394       .  S
C1435      C1576   1.436       .  S
C1436      C1522   1.433       .  S
C1437      C1561   1.438       .  S
C1438      C1523   1.434       .  S
O1439      C1449   1.280       .  A
O1439     Ni1447   1.921       .  S
O1440      C1450   1.280       .  A
O1440     Ni1447   1.917       .  S
O1441      C1451   1.280       .  A
O1441     Ni1447   1.917       .  S
O1442      C1452   1.280       .  A
O1442     Ni1447   1.922       .  S
O1443      C1452   1.280       .  A
O1443     Ni1448   1.920       .  S
O1444      C1451   1.279       .  A
O1444     Ni1448   1.917       .  S
O1445      C1450   1.279       .  A
O1445     Ni1448   1.917       .  S
O1446      C1449   1.280       .  A
O1446     Ni1448   1.918       .  S
Ni1447    Ni1448   2.394       .  S
C1449      C1518   1.437       .  S
C1450      C1563   1.433       .  S
C1451      C1550   1.433       .  S
C1452      C1519   1.438       .  S
C1453      C1520   1.473       .  S
C1453      C1583   1.470       .  S
C1453      C1595   1.472       .  S
C1453      C1511   1.531       .  S
C1454      C1517   1.473       .  S
C1454      C1582   1.468       .  S
C1454      C1586   1.471       .  S
C1454      C1498   1.531       .  S
C1455      C1495   1.473       .  S
C1455      C1521   1.469       .  S
C1455      C1590   1.472       .  S
C1455      C1486   1.531       .  S
C1456      C1484   1.473       .  S
C1456      C1524   1.470       .  S
C1456      C1599   1.472       .  S
C1456      C1474   1.531       .  S
C1457      C1477   1.476       .  S
C1457      C1489   1.476       .  S
C1458      C1501   1.475       .  S
C1458      C1508   1.476       .  S
O1459      C1469   1.280       .  A
O1459     Ni1467   1.919       .  S
O1460      C1470   1.279       .  A
O1460     Ni1467   1.917       .  S
O1461      C1471   1.279       .  A
O1461     Ni1467   1.917       .  S
O1462      C1472   1.280       .  A
O1462     Ni1467   1.919       .  S
O1463      C1472   1.280       .  A
O1463     Ni1468   1.921       .  S
O1464      C1471   1.280       .  A
O1464     Ni1468   1.917       .  S
O1465      C1470   1.280       .  A
O1465     Ni1468   1.917       .  S
O1466      C1469   1.280       .  A
O1466     Ni1468   1.921       .  S
Ni1467    Ni1468   2.394       .  S
C1469      C1483   1.437       .  S
C1470      C1537   1.433       .  S
C1471      C1526   1.433       .  S
C1472      C1496   1.437       .  S
C1473      C1474   1.413       .  A
C1473      C1478   1.394       .  A
C1473      H1479   1.083       .  S
C1474      C1475   1.414       .  A
C1475      C1476   1.395   1_655  A
C1475      H1480   1.080   1_655  S
C1476      C1477   1.399   1_455  A
C1476      H1481   1.083       .  S
C1477      C1478   1.398       .  A
C1478      H1482   1.083       .  S
C1483      C1484   1.208       .  T
C1485      C1486   1.413       .  A
C1485      C1490   1.394       .  A
C1485      H1491   1.083       .  S
C1486      C1487   1.414       .  A
C1487      C1488   1.396   1_655  A
C1487      H1492   1.080   1_655  S
C1488      C1489   1.399   1_455  A
C1488      H1493   1.083       .  S
C1489      C1490   1.398       .  A
C1490      H1494   1.083       .  S
C1495      C1496   1.208       .  T
C1497      C1498   1.413       .  A
C1497      C1502   1.393       .  A
C1497      H1503   1.083       .  S
C1498      C1499   1.414       .  A
C1499      C1500   1.396       .  A
C1499      H1504   1.080       .  S
C1500      C1501   1.399       .  A
C1500      H1505   1.083       .  S
C1501      C1502   1.398       .  A
C1502      H1506   1.084       .  S
C1507      C1508   1.399       .  A
C1507      C1512   1.395       .  A
C1507      H1513   1.083       .  S
C1508      C1509   1.398       .  A
C1509      C1510   1.394       .  A
C1509      H1514   1.083       .  S
C1510      C1511   1.413       .  A
C1510      H1515   1.083       .  S
C1511      C1512   1.414       .  A
C1512      H1516   1.080       .  S
C1517      C1518   1.208       .  T
C1519      C1520   1.208       .  T
C1521      C1522   1.205       .  T
C1523      C1524   1.206       .  T
C1525      C1526   1.205       .  T
C1527      C1528   1.413       .  A
C1527      C1532   1.397       .  A
C1527      H1533   1.081       .  S
C1528      C1529   1.412       .  A
C1529      C1530   1.393       .  A
C1529      H1534   1.083       .  S
C1530      C1531   1.398       .  A
C1530      H1535   1.084       .  S
C1531      C1532   1.401       .  A
C1532      H1536   1.082       .  S
C1537      C1538   1.205       .  T
C1539      C1540   1.398       .  A
C1539      C1544   1.393       .  A
C1539      H1545   1.084       .  S
C1540      C1541   1.401       .  A
C1541      C1542   1.397       .  A
C1541      H1546   1.082       .  S
C1542      C1543   1.413       .  A
C1542      H1547   1.081       .  S
C1543      C1544   1.412       .  A
C1544      H1548   1.083       .  S
C1549      C1550   1.206       .  T
C1551      C1552   1.413       .  A
C1551      C1556   1.397   1_565  A
C1551      H1557   1.081   1_565  S
C1552      C1553   1.412       .  A
C1553      C1554   1.393       .  A
C1553      H1558   1.083       .  S
C1554      C1555   1.398       .  A
C1554      H1559   1.083       .  S
C1555      C1556   1.401   1_565  A
C1556      H1560   1.082       .  S
C1561      C1562   1.208       .  T
C1563      C1564   1.205       .  T
C1565      C1566   1.413       .  A
C1565      C1570   1.397   1_565  A
C1565      H1571   1.081   1_565  S
C1566      C1567   1.412       .  A
C1567      C1568   1.392       .  A
C1567      H1572   1.083       .  S
C1568      C1569   1.398       .  A
C1568      H1573   1.084       .  S
C1569      C1570   1.400   1_565  A
C1570      H1574   1.082       .  S
C1575      C1576   1.208       .  T
C1577      C1578   1.208       .  T
C1579      C1580   1.208       .  T
C1581      C1582   1.206       .  T
C1583      C1584   1.206       .  T
C1585      C1586   1.206       .  T
C1587      C1588   1.206       .  T
C1589      C1590   1.206       .  T
C1591      C1592   1.205       .  T
C1593      C1594   1.205       .  T
C1595      C1596   1.206       .  T
C1597      C1598   1.205       .  T
C1599      C1600   1.206       .  T
