geometry optimzed in LAMMPS
_audit_creation_date              2020-12-01 
_audit_creation_method            'lammps2cif' 
_symmetry_space_group_name_H-M    'P1' 
_symmetry_Int_Tables_number       1 
_symmetry_cell_setting            triclinic 
loop_ 
_symmetry_equiv_pos_as_xyz 
  x,y,z 
_cell_length_a                    28.99434302 
_cell_length_b                    28.793408094165397 
_cell_length_c                    28.92450701671542 
_cell_angle_alpha                 89.8996661331104 
_cell_angle_beta                  90.21083615625997 
_cell_angle_gamma                 90.3761406111496 
loop_ 
_atom_site_label 
_atom_site_type_symbol 
_atom_site_fract_x 
_atom_site_fract_y 
_atom_site_fract_z 
_atom_site_charge 
C1          C  0.80225841  0.30776743  0.54212777     0.79800
N2          N  0.83491705  0.34198934  0.54222901    -0.78500
C3          C  0.85256581  0.35825463  0.50155596     0.82200
N4          N  0.83700449  0.34001672  0.46070006    -0.78500
C5          C  0.80411460  0.30589829  0.46055811     0.82300
N6          N  0.78740881  0.29034177  0.50132157    -0.80200
C7          C  0.41796275  0.81503859  0.33695638     0.79800
N8          N  0.41696669  0.84896005  0.36970509    -0.78500
C9          C  0.45643849  0.86318602  0.39120130     0.82200
N10         N  0.49725653  0.84285665  0.38004409    -0.78500
C11         C  0.49837287  0.80815081  0.34810032     0.82300
N12         N  0.45872087  0.79498739  0.32690173    -0.80200
C13         C  0.30758356  0.50375425  0.84972968     0.79800
N14         N  0.33866921  0.50482553  0.88542492    -0.78500
C15         C  0.36176659  0.46527271  0.89771200     0.82200
N16         N  0.35363795  0.42506980  0.87400824    -0.78500
C17         C  0.32399566  0.42450491  0.83749351     0.82300
N18         N  0.30156129  0.46375831  0.82625419    -0.80200
C19         C  0.10716233  0.32041255  0.95967681     0.79800
N20         N  0.11991039  0.30049313  0.00006532    -0.78500
C21         C  0.09965616  0.31180312  0.04045641     0.82200
N22         N  0.06596481  0.34463319  0.04047130    -0.78500
C23         C  0.05194071  0.36461937  0.99997695     0.82300
N24         N  0.07254782  0.35215330  0.95952823    -0.80200
C25         C  0.29427445  0.00645416  0.14712460     0.79800
N26         N  0.27684359  0.96536137  0.16218119    -0.78500
C27         C  0.29337805  0.92428272  0.14702854     0.82200
N28         N  0.32822505  0.92442698  0.11593191    -0.78500
C29         C  0.34672603  0.96500287  0.10054792     0.82300
N30         N  0.32951834  0.00607074  0.11605778    -0.80200
C31         C  0.80920198  0.61494416  0.46336472     0.79800
N32         N  0.84006281  0.57958029  0.46301212    -0.78500
C33         C  0.85357992  0.55945869  0.50349112     0.82200
N34         N  0.83528640  0.57443891  0.54421178    -0.78500
C35         C  0.80381562  0.60935290  0.54426359     0.82300
N36         N  0.79121000  0.62896098  0.50379420    -0.80200
C37         C  0.08988356  0.62353753  0.96197401     0.79800
N38         N  0.05917380  0.58752543  0.96197399    -0.78500
C39         C  0.04885691  0.56479695  0.00211334     0.82200
N40         N  0.07076556  0.57757848  0.04212303    -0.78500
C41         C  0.10270766  0.61272626  0.04170990     0.82300
N42         N  0.11105398  0.63531189  0.00175941    -0.80200
O43         O  0.00058890  0.41661341  0.96136257    -0.74900
O44         O  0.90561980  0.50953422  0.96071920    -0.74900
O45         O  0.99910767  0.51133798  0.96272341    -0.75000
O46         O  0.90667409  0.41441093  0.95935588    -0.75000
O47         O  0.90475099  0.41380559  0.03635925    -0.74900
O48         O  0.99889543  0.50959428  0.03975923    -0.74900
O49         O  0.90489259  0.50915643  0.03776895    -0.74900
O50         O  0.99875882  0.41468161  0.03837968    -0.75000
Ni51       Ni  0.95299822  0.46296308  0.95836984     1.25400
Ni52       Ni  0.95171486  0.46172659  0.04080449     1.25400
C53         C  0.01530214  0.40027546  0.99993634     0.87300
C54         C  0.89026895  0.52540276  0.99907594     0.87200
C55         C  0.01411898  0.52662079  0.00165887     0.87300
C56         C  0.89061895  0.39786779  0.99730158     0.87400
C57         C  0.60667220  0.99839432  0.13966338     0.79800
N58         N  0.62379984  0.95784612  0.15562108    -0.78500
C59         C  0.60492149  0.91647000  0.14332388     0.82200
N60         N  0.56777599  0.91593169  0.11419328    -0.78500
C61         C  0.54974801  0.95674036  0.09833888     0.82300
N62         N  0.56927759  0.99774724  0.11139183    -0.80200
O63         O  0.40111534  0.00086664  0.95790455    -0.74900
O64         O  0.49625186  0.99664255  0.05039951    -0.74900
O65         O  0.49426197  0.99642586  0.95668369    -0.75000
O66         O  0.40221626  0.00165763  0.05151813    -0.75000
O67         O  0.39861703  0.92424654  0.05201714    -0.74900
O68         O  0.49118869  0.91898307  0.95755228    -0.74900
O69         O  0.49269507  0.91923722  0.05131500    -0.74900
O70         O  0.39787130  0.92341979  0.95843710    -0.75000
Ni71       Ni  0.44866174  0.00163963  0.00426567     1.25400
Ni72       Ni  0.44491618  0.91871978  0.00499622     1.25400
C73         C  0.38417476  0.96262266  0.94266611     0.87300
C74         C  0.51077300  0.95738441  0.06542376     0.87200
C75         C  0.50754060  0.95705286  0.94121227     0.87300
C76         C  0.38449641  0.96372341  0.06660074     0.87400
C77         C  0.80965654  0.30636383  0.95342163     0.79800
N78         N  0.84164564  0.34133947  0.95461899    -0.78500
C79         C  0.85562239  0.35979319  0.99596383     0.82200
N80         N  0.83739485  0.34268296  0.03609624    -0.78500
C81         C  0.80492948  0.30823320  0.03479760     0.82300
N82         N  0.79178682  0.29039377  0.99363324    -0.80200
C83         C  0.68455666  0.68465879  0.27683196     0.45000
H84         H  0.66373865  0.66414351  0.30120421    -0.04000
C85         C  0.73683861  0.73618684  0.22458895     0.45100
H86         H  0.75982097  0.75683789  0.20193250    -0.04000
C87         C  0.66520784  0.73395951  0.26760652    -0.17700
C88         C  0.73262937  0.69338166  0.29705644    -0.17500
C89         C  0.69330569  0.66238120  0.22874214    -0.17800
C90         C  0.69088883  0.75961140  0.23673695    -0.17800
C91         C  0.75952458  0.72233223  0.27084894    -0.17400
C92         C  0.72260537  0.69006495  0.20217910    -0.17700
C93         C  0.61147673  0.41733763  0.14425549     0.79800
N94         N  0.62958220  0.45828046  0.15836021    -0.78500
C95         C  0.61363329  0.49898960  0.14204440     0.82200
N96         N  0.57841988  0.49931113  0.11095775    -0.78500
C97         C  0.55992955  0.45850462  0.09549551     0.82300
N98         N  0.57650480  0.41731454  0.11238457    -0.80200
C99         C  0.73358528  0.18008395  0.22227286     0.45000
H100        H  0.75637876  0.15871289  0.20044077    -0.04000
C101        C  0.68192931  0.23266334  0.27330358     0.45100
H102        H  0.66082795  0.25584524  0.29521368    -0.04000
C103        C  0.72563097  0.22849031  0.20117029    -0.17700
C104        C  0.68389715  0.16052085  0.22934016    -0.17500
C105        C  0.75354556  0.18911835  0.27140306    -0.17800
C106        C  0.69627759  0.25530112  0.22713434    -0.17800
C107        C  0.65892422  0.18580918  0.26108276    -0.17400
C108        C  0.72694051  0.21901733  0.29682601    -0.17700
C109        C  0.41553930  0.11654614  0.34871314     0.79800
N110        N  0.45662718  0.13653707  0.33937638    -0.78500
C111        C  0.49609693  0.12144565  0.35877436     0.82200
N112        N  0.49462226  0.08490462  0.38871253    -0.78500
C113        C  0.45347758  0.06475510  0.40003502     0.82300
N114        N  0.41386191  0.08065345  0.37976002    -0.80200
C115        C  0.99658009  0.12091953  0.64737655     0.79800
N116        N  0.99628178  0.08567538  0.61615190    -0.78500
C117        C  0.95541929  0.06621444  0.60261591     0.82200
N118        N  0.91530909  0.08163754  0.62157682    -0.78500
C119        C  0.91588979  0.11636661  0.65369074     0.82300
N120        N  0.95664658  0.13544571  0.66587397    -0.80200
O121        O  0.91789961  0.01292406  0.45787468    -0.74900
O122        O  0.91421825  0.91843730  0.55242744    -0.74900
O123        O  0.91625590  0.01315062  0.55191189    -0.75000
O124        O  0.91618657  0.91793673  0.45802150    -0.75000
O125        O  0.99305250  0.91756809  0.45951370    -0.74900
O126        O  0.99314785  0.01278576  0.55268642    -0.74900
O127        O  0.99110086  0.91839606  0.55378878    -0.74900
O128        O  0.99478380  0.01228706  0.45896498    -0.75000
Ni129      Ni  0.91339981  0.96559606  0.50492940     1.25400
Ni130      Ni  0.99569318  0.96510923  0.50627330     1.25400
C131        C  0.95677385  0.02863136  0.44332160     0.87300
C132        C  0.95228729  0.90325439  0.56907633     0.87200
C133        C  0.95482100  0.02884505  0.56750341     0.87300
C134        C  0.95471580  0.90207479  0.44329168     0.87400
C135        C  0.10927085  0.32527338  0.46024904     0.79800
N136        N  0.07271329  0.35448452  0.46116625    -0.78500
C137        C  0.05293907  0.36632177  0.50206641     0.82200
N138        N  0.07029653  0.34901937  0.54243956    -0.78500
C139        C  0.10705290  0.31986444  0.54154925     0.82300
N140        N  0.12578364  0.30824852  0.50054408    -0.80200
C141        C  0.30301140  0.00442351  0.85258930     0.79800
N142        N  0.33407582  0.00449680  0.88795043    -0.78500
C143        C  0.34905837  0.96336511  0.90587514     0.82200
N144        N  0.33275020  0.92252006  0.88832222    -0.78500
C145        C  0.30151741  0.92264530  0.85324600     0.82300
N146        N  0.28678162  0.96362749  0.83624442    -0.80200
C147        C  0.18161675  0.19471348  0.77754111     0.45000
H148        H  0.15883660  0.17497331  0.80135654    -0.04000
C149        C  0.23440379  0.24201014  0.72181591     0.45100
H150        H  0.25635842  0.26243662  0.69770327    -0.04000
C151        C  0.22795535  0.17009237  0.76617393    -0.17700
C152        C  0.15923488  0.20390475  0.72970626    -0.17500
C153        C  0.19551818  0.24334482  0.79650438    -0.17800
C154        C  0.25386711  0.19433845  0.73360652    -0.17800
C155        C  0.18644012  0.23166991  0.70200434    -0.17400
C156        C  0.22699488  0.26562689  0.76866637    -0.17700
C157        C  0.40649584  0.10579716  0.64273328     0.79800
N158        N  0.40687300  0.07337369  0.60850074    -0.78500
C159        C  0.44735960  0.05266258  0.59639085     0.82200
N160        N  0.48730907  0.06484671  0.61866082    -0.78500
C161        C  0.48654561  0.09652583  0.65356312     0.82300
N162        N  0.44635764  0.11653813  0.66450699    -0.80200
C163        C  0.67199822  0.22814542  0.72391020     0.45000
H164        H  0.64890177  0.25088849  0.70393154    -0.04000
C165        C  0.72275215  0.17345674  0.77432431     0.45100
H166        H  0.74473667  0.14922094  0.79399834    -0.04000
C167        C  0.71817471  0.21598249  0.70068433    -0.17700
C168        C  0.68616998  0.24924697  0.77120463    -0.17500
C169        C  0.64893882  0.18129752  0.73485298    -0.17800
C170        C  0.74339612  0.18423778  0.72662058    -0.17800
C171        C  0.71608533  0.22163172  0.79640908    -0.17400
C172        C  0.67381426  0.15453592  0.76455673    -0.17700
C173        C  0.60167466  0.41574505  0.84609606     0.79800
N174        N  0.61599359  0.45624423  0.82690829    -0.78500
C175        C  0.59958356  0.49754149  0.84134940     0.82200
N176        N  0.56867232  0.49835077  0.87668810    -0.78500
C177        C  0.55365362  0.45805965  0.89650871     0.82300
N178        N  0.57013401  0.41669499  0.88090254    -0.80200
C179        C  0.72427309  0.74051725  0.77299447     0.45000
H180        H  0.74670727  0.76407246  0.79345448    -0.04000
C181        C  0.67293942  0.68513812  0.72325467     0.45100
H182        H  0.65139950  0.66134832  0.70204529    -0.04000
C183        C  0.67574230  0.75940858  0.76269539    -0.17700
C184        C  0.74443354  0.72983270  0.72534204    -0.17500
C185        C  0.71597546  0.69284457  0.79572092    -0.17800
C186        C  0.64977975  0.73157352  0.73412567    -0.17800
C187        C  0.71905688  0.69824171  0.70048564    -0.17400
C188        C  0.68601011  0.66516973  0.77090384    -0.17700
C189        C  0.48911178  0.80329562  0.63697152     0.79800
N190        N  0.48935164  0.83731768  0.60418688    -0.78500
C191        C  0.44895264  0.85425517  0.58684878     0.82200
N192        N  0.40802203  0.83669696  0.60266466    -0.78500
C193        C  0.40742286  0.80255680  0.63543258     0.82300
N194        N  0.44809251  0.78652619  0.65192947    -0.80200
C195        C  0.17634447  0.74093401  0.77790851     0.45000
H196        H  0.15675272  0.76499610  0.80017093    -0.04000
C197        C  0.22373737  0.68382543  0.72774756     0.45100
H198        H  0.24414413  0.65899514  0.70708361    -0.04000
C199        C  0.15307493  0.72935566  0.73152798    -0.17700
C200        C  0.22401238  0.76002309  0.76398886    -0.17500
C201        C  0.18482654  0.69366470  0.80124752    -0.17800
C202        C  0.17563664  0.69540430  0.70706887    -0.17800
C203        C  0.24788159  0.73107402  0.73504449    -0.17400
C204        C  0.21392050  0.66587470  0.77672973    -0.17700
C205        C  0.91581929  0.81261391  0.35830345     0.79800
N206        N  0.91491682  0.84618571  0.39148439    -0.78500
C207        C  0.95523667  0.86555440  0.40714410     0.82200
N208        N  0.99626886  0.85107904  0.38917962    -0.78500
C209        C  0.99695620  0.81755717  0.35600840     0.82300
N210        N  0.95673582  0.79896845  0.34134943    -0.80200
C211        C  0.22956889  0.68816593  0.27949646     0.45000
H212        H  0.25386308  0.66818323  0.30133329    -0.04000
C213        C  0.17383311  0.73507622  0.22626798     0.45100
H214        H  0.15104359  0.75501020  0.20281003    -0.04000
C215        C  0.18192188  0.69743799  0.30141727    -0.17700
C216        C  0.24786824  0.73643613  0.26568150    -0.17500
C217        C  0.21916175  0.66410001  0.23333327    -0.17800
C218        C  0.15391652  0.72501739  0.27448491    -0.17800
C219        C  0.21961748  0.76003511  0.23578838    -0.17400
C220        C  0.18749219  0.68733455  0.20696650    -0.17700
C221        C  0.31469006  0.50784811  0.15141319     0.79800
N222        N  0.34721322  0.50803820  0.11730514    -0.78500
C223        C  0.36238830  0.46698379  0.09909492     0.82200
N224        N  0.34506012  0.42602141  0.11544872    -0.78500
C225        C  0.31267734  0.42576516  0.14923543     0.82300
N226        N  0.29807902  0.46659874  0.16653403    -0.80200
C227        C  0.10632557  0.60165191  0.54354614     0.79800
N228        N  0.07019592  0.57123446  0.54334956    -0.78500
C229        C  0.05176922  0.55631563  0.50256932     0.82200
N230        N  0.06951128  0.57255481  0.46193955    -0.78500
C231        C  0.10508252  0.60375578  0.46208627     0.82300
N232        N  0.12286529  0.61787376  0.50302054    -0.80200
C233        C  0.91333688  0.81702031  0.65811467     0.79800
N234        N  0.91227488  0.84866143  0.62270822    -0.78500
C235        C  0.95225088  0.86851697  0.60691262     0.82200
N236        N  0.99314016  0.85648902  0.62657908    -0.78500
C237        C  0.99427531  0.82598211  0.66232302     0.82300
N238        N  0.95451470  0.80651937  0.67737956    -0.80200
C239        C  0.59122667  0.91446196  0.85435574     0.79800
N240        N  0.55999134  0.91481370  0.88938509    -0.78500
C241        C  0.54162381  0.95594970  0.90363871     0.82200
N242        N  0.55459568  0.99641585  0.88261364    -0.78500
C243        C  0.58505556  0.99559746  0.84706022     0.82300
N244        N  0.60314577  0.95488015  0.83405992    -0.80200
C245        C  0.91700613  0.12071059  0.36283194     0.79800
N246        N  0.95739915  0.13775271  0.34739433    -0.78500
C247        C  0.99804017  0.12036571  0.36183623     0.82200
N248        N  0.99820430  0.08456813  0.39283973    -0.78500
C249        C  0.95743315  0.06666289  0.40878897     0.82300
N250        N  0.91683709  0.08455510  0.39313057    -0.80200
C251        C  0.23378806  0.24344724  0.27698846     0.45000
H252        H  0.25942256  0.26363960  0.29719482    -0.04000
C253        C  0.17550573  0.19408438  0.22852029     0.45100
H254        H  0.15127180  0.17264572  0.20771835    -0.04000
C255        C  0.22133632  0.26558752  0.23011748    -0.17700
C256        C  0.25080052  0.19448889  0.26550062    -0.17500
C257        C  0.18717241  0.23570686  0.30101014    -0.17800
C258        C  0.18826619  0.24093798  0.20598950    -0.17800
C259        C  0.22158769  0.16978660  0.23752141    -0.17400
C260        C  0.15761285  0.20715502  0.27678678    -0.17700
C261        C  0.80819824  0.61667968  0.03766381     0.79800
N262        N  0.79389199  0.63340021  0.99640093    -0.78500
C263        C  0.80987345  0.61631669  0.95602162     0.82200
N264        N  0.84112001  0.58120841  0.95715254    -0.78500
C265        C  0.85588405  0.56339154  0.99837963     0.82300
N266        N  0.83926964  0.58131950  0.03868409    -0.80200
O267        O  0.50467958  0.42156456  0.04545385    -0.74900
O268        O  0.41004148  0.42603955  0.95177166    -0.74900
O269        O  0.50333189  0.42146396  0.95115690    -0.75000
O270        O  0.41082657  0.42665785  0.04623499    -0.75000
O271        O  0.41478254  0.50399726  0.04633131    -0.74900
O272        O  0.50617495  0.49885184  0.95000555    -0.74900
O273        O  0.41247641  0.50343578  0.95182367    -0.74900
O274        O  0.50872751  0.49888605  0.04446602    -0.75000
Ni275      Ni  0.45699462  0.42124051  0.99875576     1.25400
Ni276      Ni  0.46071636  0.50403929  0.99820901     1.25400
C277        C  0.52258713  0.45958417  0.06021230     0.87300
C278        C  0.39608462  0.46515545  0.93587367     0.87200
C279        C  0.51953731  0.45946663  0.93445805     0.87300
C280        C  0.39766277  0.46601694  0.06210924     0.87400
O281        O  0.41532943  0.91343935  0.44198876    -0.74900
O282        O  0.41062092  0.00321526  0.54058549    -0.74900
O283        O  0.41363133  0.00815770  0.44648156    -0.75000
O284        O  0.41168614  0.90844046  0.53604689    -0.75000
O285        O  0.48851306  0.90945521  0.53888490    -0.74900
O286        O  0.49042204  0.00963258  0.44993445    -0.74900
O287        O  0.48746139  0.00381312  0.54387980    -0.74900
O288        O  0.49217155  0.91482154  0.44517480    -0.75000
Ni289      Ni  0.41009448  0.95825328  0.49114508     1.25400
Ni290      Ni  0.49232358  0.95952124  0.49451358     1.25400
C291        C  0.45456865  0.89904377  0.42767313     0.87300
C292        C  0.44842715  0.01822327  0.55851285     0.87200
C293        C  0.45237329  0.02558329  0.43366671     0.87300
C294        C  0.44971637  0.89245247  0.55219198     0.87400
O295        O  0.99712518  0.50736007  0.46397328    -0.74900
O296        O  0.90340904  0.41188197  0.46351367    -0.74900
O297        O  0.90322908  0.50678332  0.46440472    -0.75000
O298        O  0.99754613  0.41362466  0.46383935    -0.75000
O299        O  0.99767458  0.41282865  0.54096026    -0.74900
O300        O  0.90355274  0.50602342  0.54150416    -0.74900
O301        O  0.90354144  0.41126321  0.54057594    -0.74900
O302        O  0.99760625  0.50669605  0.54106545    -0.75000
Ni303      Ni  0.95014205  0.45989055  0.46121147     1.25400
Ni304      Ni  0.95045172  0.45916261  0.54374992     1.25400
C305        C  0.01348289  0.52204710  0.50253292     0.87300
C306        C  0.88817909  0.39559573  0.50188634     0.87200
C307        C  0.88828828  0.52217131  0.50312436     0.87300
C308        C  0.01394468  0.39883920  0.50235092     0.87400
C309        C  0.11939827  0.16769213  0.34362280    -0.09600
C310        C  0.11607268  0.18539686  0.29825285     0.06600
C311        C  0.07378287  0.18152109  0.27472515    -0.03400
C312        C  0.03690811  0.15844062  0.29566820    -0.07800
C313        C  0.04037466  0.14004605  0.34078983     0.05700
C314        C  0.08215624  0.14547968  0.36507459    -0.02800
Br315      Br  0.08965349  0.12720743  0.42849389    -0.02500
H316        H  0.15100810  0.17189515  0.36308085     0.09600
H317        H  0.00471347  0.15594221  0.27667903     0.07600
Br318      Br  0.06215342  0.21142304  0.21654417    -0.03000
C319        C  0.27923426  0.38385101  0.21583402    -0.09600
C320        C  0.29362337  0.38238808  0.16948082     0.06600
C321        C  0.28582370  0.34139599  0.14392322    -0.03400
C322        C  0.26317892  0.30370262  0.16476222    -0.07800
C323        C  0.24695456  0.30613188  0.21054652     0.05700
C324        C  0.25598653  0.34670779  0.23634825    -0.02800
Br325      Br  0.23416621  0.35659813  0.29810392    -0.02500
H326        H  0.28501283  0.41487395  0.23625976     0.09600
H327        H  0.25756280  0.27242214  0.14471061     0.07600
Br328      Br  0.30173443  0.33551978  0.07985472    -0.03000
C329        C  0.11890014  0.65329518  0.34070667    -0.09600
C330        C  0.16387093  0.67207468  0.34275735     0.06600
C331        C  0.18955240  0.66629145  0.38366550    -0.03400
C332        C  0.17023588  0.64200195  0.42082209    -0.07800
C333        C  0.12488808  0.62392746  0.41908887     0.05700
C334        C  0.09916142  0.62988169  0.37810380    -0.02800
Br335      Br  0.03586323  0.61090996  0.37129045    -0.02500
H336        H  0.09809486  0.65794263  0.31001998     0.09600
H337        H  0.19067567  0.63851687  0.45194627     0.07600
Br338      Br  0.24885024  0.69463576  0.39345599    -0.03000
C339        C  0.27232537  0.63172503  0.17377011    -0.09600
C340        C  0.24734905  0.62519435  0.21495752     0.06600
C341        C  0.24969241  0.58207090  0.23733584    -0.03400
C342        C  0.27394908  0.54569005  0.21693197    -0.07800
C343        C  0.29606497  0.55072923  0.17363964     0.05700
C344        C  0.29587428  0.59505248  0.15258513    -0.02800
Br345      Br  0.32395333  0.60783193  0.09391475    -0.02500
H346        H  0.27285065  0.66555581  0.15744355     0.09600
H347        H  0.27421239  0.51261457  0.23480605     0.07600
Br348      Br  0.21821343  0.56991356  0.29435434    -0.03000
C349        C  0.11813210  0.77099371  0.33814973    -0.09600
C350        C  0.11383803  0.75078266  0.29392777     0.06600
C351        C  0.07217539  0.75637688  0.26956164    -0.03400
C352        C  0.03619089  0.78106019  0.28963807    -0.07800
C353        C  0.03978609  0.79978653  0.33455038     0.05700
C354        C  0.08180444  0.79514101  0.35860829    -0.02800
Br355      Br  0.09112069  0.81735767  0.42048831    -0.02500
H356        H  0.14973918  0.76704712  0.35763413     0.09600
H357        H  0.00423580  0.78403447  0.27035594     0.07600
Br358      Br  0.05969266  0.72751253  0.21108236    -0.03000
C359        C  0.07519599  0.80048938  0.65209897    -0.09600
C360        C  0.03828033  0.80955229  0.68175926     0.06600
C361        C  0.04240238  0.79798902  0.72890499    -0.03400
C362        C  0.07933600  0.77108981  0.74398442    -0.07800
C363        C  0.11465171  0.75838302  0.71348709     0.05700
C364        C  0.11404908  0.77672679  0.66800017    -0.02800
Br365      Br  0.16621728  0.77539461  0.62735850    -0.02500
H366        H  0.07368020  0.81149508  0.61629189     0.09600
H367        H  0.08034840  0.76013764  0.77979758     0.07600
Br368      Br  0.00139407  0.82209180  0.77481780    -0.03000
C369        C  0.18696654  0.65781360  0.63069705    -0.09600
C370        C  0.15636186  0.66988892  0.66615712     0.06600
C371        C  0.10951678  0.65515276  0.66217441    -0.03400
C372        C  0.09464185  0.63136162  0.62275069    -0.07800
C373        C  0.12508749  0.62090685  0.58700851     0.05700
C374        C  0.17205010  0.63321914  0.59184841    -0.02800
Br375      Br  0.21835633  0.61550183  0.54810374    -0.02500
H376        H  0.22286231  0.66822062  0.63257656     0.09600
H377        H  0.05855523  0.62179369  0.61957655     0.07600
Br378      Br  0.06272735  0.66322570  0.70817546    -0.03000
C379        C  0.36675597  0.74034488  0.67970905    -0.09600
C380        C  0.36397516  0.78303140  0.65570876     0.06600
C381        C  0.32133636  0.80665084  0.65592426    -0.03400
C382        C  0.28426076  0.78868372  0.68153746    -0.07800
C383        C  0.28805379  0.74715140  0.70694859     0.05700
C384        C  0.32964075  0.72249045  0.70504621    -0.02800
Br385      Br  0.33959052  0.66642824  0.73938475    -0.02500
H386        H  0.39862565  0.72093447  0.67995377     0.09600
H387        H  0.25220661  0.80777169  0.68217035     0.07600
Br388      Br  0.31106333  0.86439366  0.62435562    -0.03000
C389        C  0.52962390  0.74112862  0.68112888    -0.09600
C390        C  0.53211403  0.78459673  0.65845804     0.06600
C391        C  0.57415721  0.80967897  0.66064670    -0.03400
C392        C  0.61133867  0.79171513  0.68580693    -0.07800
C393        C  0.60834114  0.74879526  0.70888527     0.05700
C394        C  0.56697607  0.72328708  0.70611874    -0.02800
Br395      Br  0.55801641  0.66587983  0.73871891    -0.02500
H396        H  0.49797878  0.72094920  0.68026113     0.09600
H397        H  0.64300432  0.81173450  0.68757339     0.07600
Br398      Br  0.58352420  0.86947523  0.63258094    -0.03000
C399        C  0.76392926  0.63133377  0.83290660    -0.09600
C400        C  0.74348372  0.67546906  0.83589694     0.06600
C401        C  0.74986016  0.70142893  0.87670190    -0.03400
C402        C  0.77372949  0.68200040  0.91397105    -0.07800
C403        C  0.79171596  0.63666081  0.91222305     0.05700
C404        C  0.78757801  0.61167048  0.87041682    -0.02800
Br405      Br  0.81016750  0.54966104  0.86251449    -0.02500
H406        H  0.76070175  0.61147428  0.80126636     0.09600
H407        H  0.77691038  0.70230597  0.94532919     0.07600
Br408      Br  0.72333730  0.76159493  0.88633849    -0.03000
C409        C  0.61381988  0.79169239  0.81216806    -0.09600
C410        C  0.65555959  0.79867686  0.78832120     0.06600
C411        C  0.67719660  0.84224063  0.79002243    -0.03400
C412        C  0.65672640  0.87804145  0.81454960    -0.07800
C413        C  0.61389307  0.87206397  0.83690433     0.05700
C414        C  0.59277103  0.82785076  0.83630630    -0.02800
Br415      Br  0.53431293  0.81489572  0.86462285    -0.02500
H416        H  0.59703568  0.75799457  0.81131123     0.09600
H417        H  0.67393802  0.91155103  0.81454938     0.07600
Br418      Br  0.73216615  0.85659469  0.75606464    -0.03000
C419        C  0.82888044  0.74241490  0.72936094    -0.09600
C420        C  0.78708451  0.75258087  0.70793938     0.06600
C421        C  0.78669734  0.78318011  0.66984264    -0.03400
C422        C  0.82777637  0.80407304  0.65477593    -0.07800
C423        C  0.87038419  0.79365751  0.67568533     0.05700
C424        C  0.87039430  0.76077788  0.71277413    -0.02800
Br425      Br  0.92421832  0.73476030  0.74148086    -0.02500
H426        H  0.82937434  0.71806121  0.75799380     0.09600
H427        H  0.82621406  0.82822245  0.62608623     0.07600
Br428      Br  0.73096963  0.79870280  0.63771269    -0.03000
C429        C  0.61957392  0.58130399  0.84841717    -0.09600
C430        C  0.61849720  0.54110039  0.82119271     0.06600
C431        C  0.63760570  0.54314360  0.77616639    -0.03400
C432        C  0.66074678  0.58318043  0.76134793    -0.07800
C433        C  0.66344641  0.62258693  0.78942586     0.05700
C434        C  0.64057720  0.62205647  0.83253657    -0.02800
Br435      Br  0.63187825  0.67648427  0.86944723    -0.02500
H436        H  0.60375155  0.58127263  0.88228470     0.09600
H437        H  0.67596668  0.58383891  0.72718882     0.07600
Br438      Br  0.62976887  0.49505207  0.73095493    -0.03000
C439        C  0.60841372  0.07867843  0.85011312    -0.09600
C440        C  0.60254614  0.03796932  0.82442858     0.06600
C441        C  0.61838819  0.03681429  0.77828858    -0.03400
C442        C  0.64415484  0.07376170  0.76084247    -0.07800
C443        C  0.65280065  0.11341326  0.78740610     0.05700
C444        C  0.63179115  0.11681806  0.83129529    -0.02800
Br445      Br  0.62763960  0.17388171  0.86453262    -0.02500
H446        H  0.59465148  0.08097613  0.88479973     0.09600
H447        H  0.65470382  0.07268570  0.72516900     0.07600
Br448      Br  0.60243334  0.98804974  0.73561101    -0.03000
C449        C  0.63438275  0.37055633  0.78124302    -0.09600
C450        C  0.62095631  0.37180323  0.82788519     0.06600
C451        C  0.63047761  0.33302901  0.85596587    -0.03400
C452        C  0.65149438  0.29400252  0.83671429    -0.07800
C453        C  0.66493470  0.29268863  0.78992537     0.05700
C454        C  0.65714330  0.33243031  0.76250972    -0.02800
Br455      Br  0.68166694  0.34061533  0.70153931    -0.02500
H456        H  0.62834015  0.40016558  0.75915956     0.09600
H457        H  0.65857178  0.26499854  0.85918071     0.07600
Br458      Br  0.61982392  0.33231133  0.92142344    -0.03000
C459        C  0.56971011  0.11721552  0.65082144    -0.09600
C460        C  0.52890876  0.11452623  0.67620724     0.06600
C461        C  0.52796210  0.13434582  0.72104865    -0.03400
C462        C  0.56599910  0.15948989  0.73763008    -0.07800
C463        C  0.60654443  0.16311356  0.71172868     0.05700
C464        C  0.60855102  0.14004418  0.66853615    -0.02800
Br465      Br  0.66366107  0.13380970  0.63313506    -0.02500
H466        H  0.57149153  0.10151592  0.61686549     0.09600
H467        H  0.56487915  0.17408883  0.77209601     0.07600
Br468      Br  0.47785117  0.12457910  0.76340446    -0.03000
C469        C  0.28326335  0.13956514  0.67343029    -0.09600
C470        C  0.29236792  0.17527130  0.70542390     0.06600
C471        C  0.33674675  0.19515842  0.70537642    -0.03400
C472        C  0.37221780  0.17316369  0.68200165    -0.07800
C473        C  0.36483162  0.13155427  0.65742369     0.05700
C474        C  0.31905073  0.11603440  0.65111986    -0.02800
Br475      Br  0.30279734  0.06216843  0.61550156    -0.02500
H476        H  0.24814815  0.12828397  0.66750289     0.09600
H477        H  0.40634056  0.18859625  0.68407042     0.07600
Br478      Br  0.35201798  0.25336292  0.73321813    -0.03000
C479        C  0.23811862  0.88145943  0.81345313    -0.09600
C480        C  0.28270946  0.87959656  0.83250825     0.06600
C481        C  0.30870573  0.83880013  0.82684637    -0.03400
C482        C  0.28913390  0.80074255  0.80378579    -0.07800
C483        C  0.24430219  0.80267245  0.78503102     0.05700
C484        C  0.21924997  0.84414125  0.78925307    -0.02800
Br485      Br  0.16148675  0.85491796  0.75900128    -0.02500
H486        H  0.21793446  0.91286199  0.81629378     0.09600
H487        H  0.30926792  0.76942402  0.80036802     0.07600
Br488      Br  0.37187100  0.83370637  0.84626317    -0.03000
C489        C  0.27029993  0.08379409  0.85863247    -0.09600
C490        C  0.28621116  0.04751491  0.83099564     0.06600
C491        C  0.27921424  0.04992723  0.78287602    -0.03400
C492        C  0.25709872  0.08805080  0.76364570    -0.07800
C493        C  0.24420652  0.12652385  0.79011948     0.05700
C494        C  0.24849831  0.12246967  0.83888323    -0.02800
Br495      Br  0.22136486  0.16430990  0.88177775    -0.02500
H496        H  0.27282864  0.08099413  0.89592375     0.09600
H497        H  0.24757825  0.08560370  0.72803560     0.07600
Br498      Br  0.29987385  0.00291816  0.74064251    -0.03000
C499        C  0.12796659  0.28617853  0.33635982    -0.09600
C500        C  0.17094683  0.26412061  0.34047521     0.06600
C501        C  0.19573667  0.26825586  0.38207032    -0.03400
C502        C  0.17588421  0.29120984  0.41938325    -0.07800
C503        C  0.13106955  0.30982921  0.41666167     0.05700
C504        C  0.10763235  0.30847528  0.37381403    -0.02800
Br505      Br  0.04658062  0.33219453  0.36394814    -0.02500
H506        H  0.10900068  0.28428812  0.30408972     0.09600
H507        H  0.19513662  0.29268176  0.45151814     0.07600
Br508      Br  0.25468231  0.24011223  0.39202872    -0.03000
C509        C  0.14003614  0.25164386  0.58102779    -0.09600
C510        C  0.12648181  0.29837250  0.58363023     0.06600
C511        C  0.13578107  0.32357591  0.62434384    -0.03400
C512        C  0.15786355  0.30163266  0.66150825    -0.07800
C513        C  0.17020438  0.25458370  0.65911942     0.05700
C514        C  0.16156593  0.22968539  0.61821367    -0.02800
Br515      Br  0.17670903  0.16543413  0.61163493    -0.02500
H516        H  0.13345462  0.23182496  0.54984639     0.09600
H517        H  0.16384277  0.32087407  0.69313534     0.07600
Br518      Br  0.12092580  0.38808470  0.63057398    -0.03000
C519        C  0.08242348  0.20975243  0.68934263    -0.09600
C520        C  0.11484156  0.18216646  0.71301749     0.06600
C521        C  0.10695998  0.13348522  0.71419113    -0.03400
C522        C  0.06980007  0.11390305  0.69001297    -0.07800
C523        C  0.03938044  0.14167742  0.66498453     0.05700
C524        C  0.04574441  0.19006007  0.66485315    -0.02800
Br525      Br  0.00678224  0.23069511  0.62957356    -0.02500
H526        H  0.08607246  0.24704689  0.68847798     0.09600
H527        H  0.06378751  0.07675041  0.69187592     0.07600
Br528      Br  0.14418758  0.09027866  0.74727373    -0.03000
C529        C  0.83242606  0.10652993  0.67006327    -0.09600
C530        C  0.87292818  0.13259761  0.67637181     0.06600
C531        C  0.87126441  0.17177738  0.70641306    -0.03400
C532        C  0.82915067  0.18570615  0.72493208    -0.07800
C533        C  0.78805076  0.16346189  0.71258290     0.05700
C534        C  0.79083398  0.12059884  0.68941177    -0.02800
Br535      Br  0.74307847  0.07501610  0.69101646    -0.02500
H536        H  0.83323822  0.07399466  0.65134664     0.09600
H537        H  0.82834928  0.21500937  0.74836059     0.07600
Br538      Br  0.92322141  0.20951275  0.72453901    -0.03000
C539        C  0.32987532  0.12286849  0.34237210    -0.09600
C540        C  0.37352089  0.13479201  0.32511375     0.06600
C541        C  0.37584376  0.16529581  0.28622839    -0.03400
C542        C  0.33577834  0.18585006  0.26891992    -0.07800
C543        C  0.29266404  0.17407538  0.28665865     0.05700
C544        C  0.28976383  0.14128149  0.32284153    -0.02800
Br545      Br  0.23215470  0.12033608  0.34747622    -0.02500
H546        H  0.32673520  0.09910667  0.37127265     0.09600
H547        H  0.33808391  0.20976910  0.24003348     0.07600
Br548      Br  0.43072949  0.17789140  0.25102017    -0.03000
C549        C  0.58329941  0.20020461  0.29994428    -0.09600
C550        C  0.61798735  0.16841639  0.28815536     0.06600
C551        C  0.61407224  0.12250151  0.30594845    -0.03400
C552        C  0.57541048  0.10896763  0.33132613    -0.07800
C553        C  0.54007831  0.14008038  0.34072732     0.05700
C554        C  0.54499230  0.18668230  0.32616162    -0.02800
Br555      Br  0.50166152  0.23401279  0.34261729    -0.02500
H556        H  0.58534095  0.23580824  0.28808862     0.09600
H557        H  0.57231805  0.07317712  0.34264264     0.07600
Br558      Br  0.65951712  0.07547934  0.30059144    -0.03000
C559        C  0.83110943  0.20151284  0.30722316    -0.09600
C560        C  0.79807144  0.17013058  0.28974516     0.06600
C561        C  0.80583710  0.12209277  0.29645871    -0.03400
C562        C  0.84320188  0.10695361  0.32288669    -0.07800
C563        C  0.87451823  0.13856731  0.34184862     0.05700
C564        C  0.86854065  0.18637715  0.33350084    -0.02800
Br565      Br  0.90887211  0.23292706  0.35910327    -0.02500
H566        H  0.82727994  0.23837599  0.30123664     0.09600
H567        H  0.84883194  0.07001099  0.32723174     0.07600
Br568      Br  0.76929059  0.07393598  0.27049687    -0.03000
C569        C  0.62677650  0.29819015  0.20041763    -0.09600
C570        C  0.67440520  0.29860381  0.20972703     0.06600
C571        C  0.70042247  0.33822805  0.19791468    -0.03400
C572        C  0.67927531  0.37513696  0.17491534    -0.07800
C573        C  0.63180467  0.37440892  0.16415791     0.05700
C574        C  0.60530579  0.33558215  0.17796102    -0.02800
Br575      Br  0.53963669  0.33276852  0.17006665    -0.02500
H576        H  0.60623814  0.26827337  0.21005298     0.09600
H577        H  0.70023193  0.40505824  0.16582865     0.07600
Br578      Br  0.76453675  0.34458397  0.21343424    -0.03000
C579        C  0.79186405  0.66469457  0.15920766    -0.09600
C580        C  0.74489422  0.67625543  0.15823184     0.06600
C581        C  0.71992212  0.67085962  0.11695685    -0.03400
C582        C  0.74126568  0.65111623  0.07844695    -0.07800
C583        C  0.78767111  0.63661903  0.08012677     0.05700
C584        C  0.81328148  0.64451142  0.12093495    -0.02800
Br585      Br  0.87771891  0.63049678  0.12619991    -0.02500
H586        H  0.81157036  0.66993842  0.19051482     0.09600
H587        H  0.72113094  0.64642756  0.04716241     0.07600
Br588      Br  0.65661848  0.68919011  0.11224225    -0.03000
C589        C  0.69995556  0.58794377  0.18261719    -0.09600
C590        C  0.67367273  0.61580743  0.21264037     0.06600
C591        C  0.62841448  0.59919417  0.22295138    -0.03400
C592        C  0.60797056  0.56468367  0.19549892    -0.07800
C593        C  0.63306536  0.54179032  0.16155236     0.05700
C594        C  0.68005163  0.55228612  0.15653932    -0.02800
Br595      Br  0.71855689  0.51870689  0.11451090    -0.02500
H596        H  0.73664229  0.59305839  0.17959939     0.09600
H597        H  0.57358819  0.55226567  0.20381316     0.07600
Br598      Br  0.59716098  0.60724601  0.28046366    -0.03000
C599        C  0.79717423  0.79136626  0.30583423    -0.09600
C600        C  0.80133786  0.74559683  0.29000059     0.06600
C601        C  0.84231269  0.72147928  0.29937909    -0.03400
C602        C  0.87794029  0.74352971  0.32367602    -0.07800
C603        C  0.87399959  0.78981497  0.33905675     0.05700
C604        C  0.83276200  0.81371376  0.33003804    -0.02800
Br605      Br  0.82339403  0.87723526  0.34738333    -0.02500
H606        H  0.76555698  0.80967896  0.30003914     0.09600
H607        H  0.90935418  0.72434502  0.33008814     0.07600
Br608      Br  0.85198796  0.65879650  0.27971162    -0.03000
C609        C  0.78108712  0.23681144  0.91159492    -0.09600
C610        C  0.79353187  0.28406063  0.90979789     0.06600
C611        C  0.78539283  0.30864392  0.86847539    -0.03400
C612        C  0.76284671  0.28650467  0.83150112    -0.07800
C613        C  0.74604749  0.24040844  0.83498921     0.05700
C614        C  0.75783168  0.21482970  0.87516042    -0.02800
Br615      Br  0.74221660  0.15084531  0.88577995    -0.02500
H616        H  0.78817748  0.21689080  0.94261387     0.09600
H617        H  0.75685725  0.30631749  0.80022571     0.07600
Br618      Br  0.79981007  0.37341623  0.86162132    -0.03000
C619        C  0.71785917  0.26095751  0.12095927    -0.09600
C620        C  0.74657358  0.24403849  0.15633318     0.06600
C621        C  0.79494559  0.24712994  0.15014072    -0.03400
C622        C  0.81328360  0.26955204  0.11121329    -0.07800
C623        C  0.78444324  0.28839622  0.07728047     0.05700
C624        C  0.73624902  0.28343730  0.08213767    -0.02800
Br625      Br  0.69379465  0.30963747  0.03838257    -0.02500
H626        H  0.68076131  0.25812132  0.12425241     0.09600
H627        H  0.85036994  0.27178163  0.10712882     0.07600
Br628      Br  0.83857940  0.22366455  0.19379551    -0.03000
C629        C  0.69295145  0.08708865  0.18352392    -0.09600
C630        C  0.66394178  0.12238252  0.19965024     0.06600
C631        C  0.61695768  0.12066828  0.18555703    -0.03400
C632        C  0.59899735  0.08041915  0.16501087    -0.07800
C633        C  0.62744800  0.04262373  0.15521389     0.05700
C634        C  0.67533806  0.04748793  0.16196544    -0.02800
Br635      Br  0.71905201  0.00274479  0.14030802    -0.02500
H636        H  0.72971142  0.08943093  0.18764561     0.09600
H637        H  0.56253382  0.07865489  0.15681873     0.07600
Br638      Br  0.57675057  0.17331860  0.18586519    -0.03000
C639        C  0.67382728  0.87515031  0.17279532    -0.09600
C640        C  0.62654185  0.87344957  0.16184381     0.06600
C641        C  0.60166118  0.83269187  0.17268797    -0.03400
C642        C  0.62405822  0.79577914  0.19484284    -0.07800
C643        C  0.67062272  0.79899041  0.20920172     0.05700
C644        C  0.69583062  0.83911839  0.19637291    -0.02800
Br645      Br  0.75928766  0.85023833  0.21167143    -0.02500
H646        H  0.69395442  0.90567163  0.16414009     0.09600
H647        H  0.60430942  0.76454578  0.20177948     0.07600
Br648      Br  0.53648049  0.82634746  0.16245872    -0.03000
C649        C  0.11098353  0.61535707  0.12765916    -0.09600
C650        C  0.12753543  0.62845634  0.08401854     0.06600
C651        C  0.16648576  0.65880922  0.08185285    -0.03400
C652        C  0.18333138  0.67978506  0.12196899    -0.07800
C653        C  0.16619728  0.66711949  0.16510364     0.05700
C654        C  0.13107902  0.63315203  0.16796896    -0.02800
Br655      Br  0.10940397  0.60939685  0.22578833    -0.02500
H656        H  0.08237911  0.59117006  0.13060653     0.09600
H657        H  0.21165327  0.70441393  0.11967764     0.07600
Br658      Br  0.20292847  0.66944410  0.02732789    -0.03000
C659        C  0.10750258  0.61903352  0.87855892    -0.09600
C660        C  0.10621660  0.64563554  0.91876157     0.06600
C661        C  0.12622735  0.69066790  0.91814489    -0.03400
C662        C  0.15219672  0.70529598  0.88000309    -0.07800
C663        C  0.15670185  0.67687697  0.84106868     0.05700
C664        C  0.13102150  0.63474116  0.83956973    -0.02800
Br665      Br  0.12145017  0.59825104  0.78525544    -0.02500
H666        H  0.09067182  0.58533659  0.87753866     0.09600
H667        H  0.16880857  0.73910089  0.88075526     0.07600
Br668      Br  0.11644497  0.73514862  0.96649957    -0.03000
C669        C  0.73629070  0.64405117  0.58256698    -0.09600
C670        C  0.78137705  0.62641831  0.58671197     0.06600
C671        C  0.80445545  0.63028828  0.62945792    -0.03400
C672        C  0.78248186  0.65194570  0.66643849    -0.07800
C673        C  0.73865225  0.67207373  0.66120998     0.05700
C674        C  0.71509506  0.66710924  0.61902993    -0.02800
Br675      Br  0.65581982  0.69418462  0.60757775    -0.02500
H676        H  0.71781555  0.64138146  0.55004076     0.09600
H677        H  0.80039467  0.65424958  0.69926413     0.07600
Br678      Br  0.86726209  0.61156242  0.63858535    -0.03000
C679        C  0.75957915  0.70130886  0.37828109    -0.09600
C680        C  0.74854334  0.67228358  0.34101049     0.06600
C681        C  0.75810613  0.62436475  0.34428024    -0.03400
C682        C  0.77958532  0.60668036  0.38371606    -0.07800
C683        C  0.79152521  0.63584120  0.42049503     0.05700
C684        C  0.78150114  0.68373864  0.41753805    -0.02800
Br685      Br  0.79966018  0.72759453  0.46429528    -0.02500
H686        H  0.75247478  0.73813542  0.37617903     0.09600
H687        H  0.78636477  0.56977288  0.38592685     0.07600
Br688      Br  0.74554389  0.58123908  0.29555470    -0.03000
C689        C  0.22989495  0.88229029  0.18716252    -0.09600
C690        C  0.27324968  0.88042990  0.16530456     0.06600
C691        C  0.29638707  0.83735737  0.16368607    -0.03400
C692        C  0.27645469  0.79838495  0.18442155    -0.07800
C693        C  0.23519678  0.80139869  0.20935259     0.05700
C694        C  0.21097543  0.84348276  0.20927663    -0.02800
Br695      Br  0.15343549  0.85121099  0.24062876    -0.02500
H696        H  0.21086076  0.91451012  0.18821467     0.09600
H697        H  0.29411672  0.76549381  0.18214831     0.07600
Br698      Br  0.35669148  0.82867991  0.13777787    -0.03000
C699        C  0.23300794  0.04703465  0.19162636    -0.09600
C700        C  0.27440423  0.05022908  0.16600153     0.06600
C701        C  0.29570061  0.09439702  0.16153301    -0.03400
C702        C  0.27656230  0.13278650  0.18373001    -0.07800
C703        C  0.23706412  0.12852968  0.21137517     0.05700
C704        C  0.21441955  0.08549452  0.21414593    -0.02800
Br705      Br  0.15956957  0.07659440  0.25008350    -0.02500
H706        H  0.21510628  0.01411367  0.19518908     0.09600
H707        H  0.29326387  0.16634942  0.18010396     0.07600
Br708      Br  0.35182717  0.10581126  0.12817501    -0.03000
C709        C  0.10561912  0.29987804  0.87579474    -0.09600
C710        C  0.13083826  0.30616336  0.91671440     0.06600
C711        C  0.17808865  0.29497703  0.91685409    -0.03400
C712        C  0.19800367  0.27484708  0.87800116    -0.07800
C713        C  0.17276749  0.26605869  0.83745145     0.05700
C714        C  0.12618365  0.28055834  0.83641998    -0.02800
Br715      Br  0.08871843  0.27766316  0.78230467    -0.02500
H716        H  0.06949392  0.30913406  0.87465687     0.09600
H717        H  0.23298774  0.26503873  0.88091854     0.07600
Br718      Br  0.21854484  0.30775468  0.96822379    -0.03000
C719        C  0.11891431  0.31816212  0.12422123    -0.09600
C720        C  0.11769375  0.29114146  0.08397852     0.06600
C721        C  0.13716393  0.24610445  0.08535687    -0.03400
C722        C  0.16004470  0.23067756  0.12518708    -0.07800
C723        C  0.16344334  0.25881272  0.16447098     0.05700
C724        C  0.14085469  0.30222901  0.16434091    -0.02800
Br725      Br  0.13537189  0.34010361  0.21844676    -0.02500
H726        H  0.10330130  0.35223873  0.12437722     0.09600
H727        H  0.17544617  0.19648783  0.12542540     0.07600
Br728      Br  0.13166001  0.20262448  0.03527144    -0.03000
C729        C  0.31376833  0.33830452  0.83661333    -0.11800
C730        C  0.31011664  0.38102945  0.81375859     0.06600
C731        C  0.28715671  0.38221107  0.77052656    -0.03400
C732        C  0.25878866  0.34511716  0.75729713    -0.07800
C733        C  0.25734221  0.30446145  0.78376337     0.05700
C734        C  0.29020094  0.29927521  0.81981768    -0.02800
Br735      Br  0.30999104  0.23963822  0.84250268    -0.02500
H736        H  0.33496044  0.33510464  0.86734785     0.09600
H737        H  0.23902085  0.34748463  0.72555792     0.07600
Br738      Br  0.29838650  0.43029273  0.72572034    -0.03000
C739        C  0.22948128  0.58149388  0.77808531    -0.09600
C740        C  0.23800509  0.62515649  0.79682555     0.06600
C741        C  0.26910387  0.62922175  0.83438457    -0.03400
C742        C  0.29180341  0.58971146  0.85139705    -0.07800
C743        C  0.28106154  0.54529995  0.83418061     0.05700
C744        C  0.24621057  0.54173283  0.79955837    -0.02800
Br745      Br  0.21228089  0.48590237  0.78523813    -0.02500
H746        H  0.20646603  0.57793509  0.74874226     0.09600
H747        H  0.31756671  0.59381761  0.87830141     0.07600
Br748      Br  0.28415052  0.68806864  0.86161889    -0.03000
C749        C  0.33212597  0.81074088  0.33395973    -0.09600
C750        C  0.37464665  0.79711793  0.31539055     0.06600
C751        C  0.37433139  0.76486067  0.27821904    -0.03400
C752        C  0.33317340  0.74289558  0.26518233    -0.07800
C753        C  0.29121393  0.75638783  0.28426066     0.05700
C754        C  0.29071242  0.79189461  0.31762434    -0.02800
Br755      Br  0.23461065  0.81638847  0.34195604    -0.02500
H756        H  0.33079018  0.83638617  0.36124966     0.09600
H757        H  0.33349328  0.71728819  0.23776575     0.07600
Br758      Br  0.42620837  0.75358073  0.23874749    -0.03000
C759        C  0.58337588  0.81242712  0.33542213    -0.09600
C760        C  0.54232409  0.78652316  0.33361456     0.06600
C761        C  0.54343132  0.74173960  0.31372439    -0.03400
C762        C  0.58289765  0.72688693  0.29080680    -0.07800
C763        C  0.62380884  0.75256194  0.29197469     0.05700
C764        C  0.62409266  0.79537433  0.31603617    -0.02800
Br765      Br  0.67830094  0.83236412  0.32484829    -0.02500
H766        H  0.58377802  0.84641500  0.35142249     0.09600
H767        H  0.58113862  0.69572014  0.27073226     0.07600
Br768      Br  0.49456248  0.69690005  0.32062802    -0.03000
C769        C  0.78178797  0.26286169  0.66437189    -0.09600
C770        C  0.73726462  0.24328409  0.66037718     0.06600
C771        C  0.71195197  0.25384614  0.61963642    -0.03400
C772        C  0.73401075  0.27572788  0.58253472    -0.07800
C773        C  0.78045456  0.28974192  0.58494121     0.05700
C774        C  0.80412280  0.28420056  0.62705076    -0.02800
Br775      Br  0.86754110  0.30192005  0.63534808    -0.02500
H776        H  0.79917030  0.26297211  0.69719646     0.09600
H777        H  0.71431175  0.28220590  0.55129020     0.07600
Br778      Br  0.64680818  0.24473868  0.61137108    -0.03000
C779        C  0.75734178  0.28827695  0.33811713    -0.09600
C780        C  0.74256398  0.24181989  0.34019894     0.06600
C781        C  0.74772196  0.21706504  0.38166966    -0.03400
C782        C  0.76892153  0.23839480  0.41967146    -0.07800
C783        C  0.78528545  0.28466663  0.41747895     0.05700
C784        C  0.77909496  0.30968342  0.37590179    -0.02800
Br785      Br  0.79775919  0.37329972  0.36844871    -0.02500
H786        H  0.75327403  0.30755536  0.30629700     0.09600
H787        H  0.77259060  0.21846448  0.45125343     0.07600
Br788      Br  0.72557887  0.15449784  0.38812689    -0.03000
loop_ 
_geom_bond_atom_site_label_1 
_geom_bond_atom_site_label_2 
_geom_bond_distance 
_geom_bond_site_symmetry_2 
_ccdc_geom_bond_type 
C1            N2   1.362       .  A
C1            N6   1.351       .  A
C1          C773   1.484       .  S
N2            C3   1.365       .  A
C3            N4   1.368       .  A
C3          C306   1.486       .  S
N4            C5   1.365       .  A
C5            N6   1.351       .  A
C5          C783   1.489       .  S
C7            N8   1.362       .  A
C7           N12   1.351       .  A
C7          C750   1.490       .  S
N8            C9   1.361       .  A
C9           N10   1.364       .  A
C9          C291   1.479       .  S
N10          C11   1.363       .  A
C11          N12   1.353       .  A
C11         C760   1.484       .  S
C13          N14   1.368       .  A
C13          N18   1.348       .  A
C13         C743   1.494       .  S
N14          C15   1.371       .  A
C15          N16   1.365       .  A
C15         C278   1.483       .  S
N16          C17   1.359       .  A
C17          N18   1.346       .  A
C17         C730   1.481       .  S
C19          N20   1.352   1_556  A
C19          N24   1.362       .  A
C19         C710   1.482       .  S
N20          C21   1.351       .  A
C21          N22   1.364       .  A
C21         C720   1.486       .  S
N22          C23   1.366   1_554  A
C23          N24   1.365       .  A
C23          C53   1.482       .  S
C25          N26   1.355   1_545  A
C25          N30   1.363       .  A
C25         C700   1.494       .  S
N26          C27   1.353       .  A
C27          N28   1.355       .  A
C27         C690   1.485       .  S
N28          C29   1.357       .  A
C29          N30   1.364   1_565  A
C29          C76   1.474       .  S
C31          N32   1.360       .  A
C31          N36   1.346       .  A
C31         C683   1.469       .  S
N32          C33   1.363       .  A
C33          N34   1.365       .  A
C33         C307   1.476       .  S
N34          C35   1.362       .  A
C35          N36   1.349       .  A
C35         C670   1.478       .  S
C37          N38   1.362       .  A
C37          N42   1.345   1_556  A
C37         C660   1.480       .  S
N38          C39   1.365   1_556  A
C39          N40   1.368       .  A
C39          C55   1.486       .  S
N40          C41   1.367       .  A
C41          N42   1.347       .  A
C41         C650   1.487       .  S
O43         Ni51   1.928   1_455  S
O43          C53   1.283       .  A
O44         Ni51   1.927       .  S
O44          C54   1.283       .  A
O45         Ni51   1.928       .  S
O45          C55   1.283   1_656  A
O46         Ni51   1.933       .  S
O46          C56   1.283       .  A
O47         Ni52   1.936       .  S
O47          C56   1.285   1_554  A
O48         Ni52   1.936       .  S
O48          C55   1.284   1_655  A
O49         Ni52   1.934       .  S
O49          C54   1.284   1_554  A
O50         Ni52   1.930       .  S
O50          C53   1.283   1_654  A
Ni51        Ni52   2.385   1_556  S
C54         C265   1.485       .  S
C56          C79   1.489       .  S
C57          N58   1.352       .  A
C57          N62   1.356       .  A
C57         C633   1.475   1_565  S
N58          C59   1.355       .  A
C59          N60   1.365       .  A
C59         C640   1.490       .  S
N60          C61   1.367       .  A
C61          N62   1.360       .  A
C61          C74   1.475       .  S
O63         Ni71   1.920   1_556  S
O63          C73   1.281   1_545  A
O64         Ni71   1.922   1_565  S
O64          C74   1.283       .  A
O65         Ni71   1.919   1_566  S
O65          C75   1.282       .  A
O66         Ni71   1.922       .  S
O66          C76   1.281   1_545  A
O67         Ni72   1.922       .  S
O67          C76   1.283       .  A
O68         Ni72   1.923   1_556  S
O68          C75   1.282       .  A
O69         Ni72   1.924       .  S
O69          C74   1.281       .  A
O70         Ni72   1.919   1_556  S
O70          C73   1.282       .  A
Ni71        Ni72   2.389   1_545  S
C73         C143   1.470       .  S
C75         C241   1.472       .  S
C77          N78   1.365       .  A
C77          N82   1.354       .  A
C77         C610   1.489       .  S
N78          C79   1.368       .  A
C79          N80   1.367   1_556  A
N80          C81   1.363       .  A
C81          N82   1.350   1_554  A
C81         C623   1.479       .  S
C83          H84   1.099       .  S
C83          C89   1.555       .  S
C83          C88   1.529       .  S
C83          C87   1.552       .  S
C85          H86   1.106       .  S
C85          C91   1.542       .  S
C85          C90   1.539       .  S
C85          C92   1.532       .  S
C87          C90   1.376       .  D
C87         C763   1.497       .  S
C88          C91   1.368       .  D
C88         C680   1.482       .  S
C89          C92   1.393       .  D
C89         C590   1.526       .  S
C90         C643   1.506       .  S
C91         C600   1.487       .  S
C92         C580   1.484       .  S
C93          N94   1.350       .  A
C93          N98   1.368       .  A
C93         C573   1.487       .  S
N94          C95   1.347       .  A
C95          N96   1.358       .  A
C95         C593   1.465       .  S
N96          C97   1.364       .  A
C97          N98   1.371       .  A
C97         C277   1.486       .  S
C99         H100   1.106       .  S
C99         C105   1.554       .  S
C99         C104   1.557       .  S
C99         C103   1.539       .  S
C101        H102   1.110       .  S
C101        C107   1.542       .  S
C101        C106   1.542       .  S
C101        C108   1.523       .  S
C103        C106   1.378       .  D
C103        C620   1.500       .  S
C104        C107   1.383       .  D
C104        C630   1.506       .  S
C105        C108   1.376       .  D
C105        C560   1.500       .  S
C106        C570   1.489       .  S
C107        C550   1.507       .  S
C108        C780   1.485       .  S
C109        N110   1.348       .  A
C109        N114   1.369       .  A
C109        C540   1.492       .  S
N110        C111   1.347       .  A
C111        N112   1.362       .  A
C111        C553   1.477       .  S
N112        C113   1.364       .  A
C113        N114   1.369       .  A
C113        C293   1.488       .  S
C115        N116   1.360       .  A
C115        N120   1.347       .  A
C115        C523   1.464   1_655  S
N116        C117   1.364       .  A
C117        N118   1.365       .  A
C117        C133   1.481       .  S
N118        C119   1.366       .  A
C119        N120   1.346       .  A
C119        C530   1.488       .  S
O121       Ni129   1.928   1_545  S
O121        C131   1.284       .  A
O122       Ni129   1.930       .  S
O122        C132   1.282       .  A
O123       Ni129   1.932   1_545  S
O123        C133   1.284       .  A
O124       Ni129   1.934       .  S
O124        C134   1.284       .  A
O125       Ni130   1.927       .  S
O125        C134   1.283       .  A
O126       Ni130   1.924   1_545  S
O126        C133   1.282       .  A
O127       Ni130   1.926       .  S
O127        C132   1.284       .  A
O128       Ni130   1.927   1_545  S
O128        C131   1.282       .  A
Ni129      Ni130   2.386       .  S
C131        C249   1.481       .  S
C132        C235   1.481       .  S
C134        C207   1.484       .  S
C135        N136   1.358       .  A
C135        N140   1.351       .  A
C135        C503   1.483       .  S
N136        C137   1.361       .  A
C137        N138   1.365       .  A
C137        C308   1.473       .  S
N138        C139   1.361       .  A
C139        N140   1.350       .  A
C139        C510   1.476       .  S
C141        N142   1.360       .  A
C141        N146   1.348   1_545  A
C141        C490   1.473       .  S
N142        C143   1.365   1_545  A
C143        N144   1.363       .  A
N144        C145   1.357       .  A
C145        N146   1.349       .  A
C145        C480   1.478       .  S
C147        H148   1.109       .  S
C147        C153   1.555       .  S
C147        C152   1.549       .  S
C147        C151   1.560       .  S
C149        H150   1.111       .  S
C149        C155   1.530       .  S
C149        C154   1.525       .  S
C149        C156   1.534       .  S
C151        C154   1.391       .  D
C151        C493   1.509       .  S
C152        C155   1.377       .  D
C152        C520   1.506       .  S
C153        C156   1.374       .  D
C153        C713   1.510       .  S
C154        C470   1.493       .  S
C155        C513   1.481       .  S
C156        C733   1.484       .  S
C157        N158   1.362       .  A
C157        N162   1.349       .  A
C157        C473   1.485       .  S
N158        C159   1.367       .  A
C159        N160   1.367       .  A
C159        C292   1.480       .  S
N160        C161   1.362       .  A
C161        N162   1.342       .  A
C161        C460   1.481       .  S
C163        H164   1.101       .  S
C163        C169   1.535       .  S
C163        C168   1.551       .  S
C163        C167   1.543       .  S
C165        H166   1.104       .  S
C165        C171   1.542       .  S
C165        C170   1.536       .  S
C165        C172   1.542       .  S
C167        C170   1.391       .  D
C167        C770   1.510       .  S
C168        C171   1.385       .  D
C168        C453   1.501       .  S
C169        C172   1.361       .  D
C169        C463   1.490       .  S
C170        C533   1.488       .  S
C171        C613   1.510       .  S
C172        C443   1.483       .  S
C173        N174   1.354       .  A
C173        N178   1.363       .  A
C173        C450   1.485       .  S
N174        C175   1.351       .  A
C175        N176   1.362       .  A
C175        C430   1.485       .  S
N176        C177   1.363       .  A
C177        N178   1.364       .  A
C177        C279   1.481       .  S
C179        H180   1.107       .  S
C179        C185   1.539       .  S
C179        C184   1.532       .  S
C179        C183   1.540       .  S
C181        H182   1.108       .  S
C181        C187   1.537       .  S
C181        C186   1.534       .  S
C181        C188   1.539       .  S
C183        C186   1.372       .  D
C183        C410   1.478       .  S
C184        C187   1.369       .  D
C184        C420   1.485       .  S
C185        C188   1.376       .  D
C185        C400   1.494       .  S
C186        C393   1.491       .  S
C187        C673   1.481       .  S
C188        C433   1.486       .  S
C189        N190   1.362       .  A
C189        N194   1.353       .  A
C189        C390   1.494       .  S
N190        C191   1.365       .  A
C191        N192   1.367       .  A
C191        C294   1.487       .  S
N192        C193   1.364       .  A
C193        N194   1.354       .  A
C193        C380   1.497       .  S
C195        H196   1.108       .  S
C195        C201   1.539       .  S
C195        C200   1.539       .  S
C195        C199   1.536       .  S
C197        H198   1.108       .  S
C197        C203   1.540       .  S
C197        C202   1.553       .  S
C197        C204   1.534       .  S
C199        C202   1.378       .  D
C199        C363   1.489       .  S
C200        C203   1.374       .  D
C200        C483   1.488       .  S
C201        C204   1.367       .  D
C201        C663   1.492       .  S
C202        C370   1.498       .  S
C203        C383   1.493       .  S
C204        C740   1.485       .  S
C205        N206   1.364       .  A
C205        N210   1.347       .  A
C205        C603   1.482       .  S
N206        C207   1.368       .  A
C207        N208   1.368       .  A
N208        C209   1.362       .  A
C209        N210   1.347       .  A
C209        C353   1.485   1_655  S
C211        H212   1.108       .  S
C211        C217   1.534       .  S
C211        C216   1.537       .  S
C211        C215   1.547       .  S
C213        H214   1.108       .  S
C213        C219   1.530       .  S
C213        C218   1.538       .  S
C213        C220   1.539       .  S
C215        C218   1.378       .  D
C215        C330   1.495       .  S
C216        C219   1.371       .  D
C216        C753   1.478       .  S
C217        C220   1.369       .  D
C217        C340   1.491       .  S
C218        C350   1.495       .  S
C219        C693   1.483       .  S
C220        C653   1.476       .  S
C221        N222   1.367       .  A
C221        N226   1.351       .  A
C221        C343   1.498       .  S
N222        C223   1.371       .  A
C223        N224   1.364       .  A
C223        C280   1.483       .  S
N224        C225   1.358       .  A
C225        N226   1.350       .  A
C225        C320   1.483       .  S
C227        N228   1.361       .  A
C227        N232   1.350       .  A
C227        C373   1.476       .  S
N228        C229   1.362       .  A
C229        N230   1.365       .  A
C229        C305   1.480       .  S
N230        C231   1.363       .  A
C231        N232   1.352       .  A
C231        C333   1.487       .  S
C233        N234   1.370       .  A
C233        N238   1.352       .  A
C233        C423   1.501       .  S
N234        C235   1.369       .  A
C235        N236   1.360       .  A
N236        C237   1.356       .  A
C237        N238   1.352       .  A
C237        C360   1.473   1_655  S
C239        N240   1.362       .  A
C239        N244   1.346       .  A
C239        C413   1.481       .  S
N240        C241   1.367       .  A
C241        N242   1.365       .  A
N242        C243   1.358       .  A
C243        N244   1.342       .  A
C243        C440   1.472   1_565  S
C245        N246   1.344       .  A
C245        N250   1.360       .  A
C245        C563   1.467       .  S
N246        C247   1.348       .  A
C247        N248   1.365       .  A
C247        C313   1.481   1_655  S
N248        C249   1.368       .  A
C249        N250   1.364       .  A
C251        H252   1.107       .  S
C251        C257   1.537       .  S
C251        C256   1.534       .  S
C251        C255   1.540       .  S
C253        H254   1.109       .  S
C253        C259   1.533       .  S
C253        C258   1.541       .  S
C253        C260   1.539       .  S
C255        C258   1.378       .  D
C255        C323   1.491       .  S
C256        C259   1.366       .  D
C256        C543   1.482       .  S
C257        C260   1.375       .  D
C257        C500   1.485       .  S
C258        C723   1.490       .  S
C259        C703   1.482       .  S
C260        C310   1.491       .  S
C261        N262   1.351   1_554  A
C261        N266   1.364       .  A
C261        C583   1.485       .  S
N262        C263   1.353       .  A
C263        N264   1.362       .  A
C263        C403   1.491       .  S
N264        C265   1.366       .  A
C265        N266   1.366   1_556  A
O267       Ni275   1.929   1_554  S
O267        C277   1.282       .  A
O268       Ni275   1.925       .  S
O268        C278   1.283       .  A
O269       Ni275   1.927       .  S
O269        C279   1.282       .  A
O270       Ni275   1.929   1_554  S
O270        C280   1.284       .  A
O271       Ni276   1.930   1_554  S
O271        C280   1.282       .  A
O272       Ni276   1.929       .  S
O272        C279   1.283       .  A
O273       Ni276   1.935       .  S
O273        C278   1.283       .  A
O274       Ni276   1.933   1_554  S
O274        C277   1.285       .  A
Ni275      Ni276   2.386       .  S
O281       Ni289   1.929       .  S
O281        C291   1.284       .  A
O282       Ni289   1.931   1_545  S
O282        C292   1.284       .  A
O283       Ni289   1.933   1_545  S
O283        C293   1.283       .  A
O284       Ni289   1.934       .  S
O284        C294   1.284       .  A
O285       Ni290   1.931       .  S
O285        C294   1.284       .  A
O286       Ni290   1.934   1_545  S
O286        C293   1.285       .  A
O287       Ni290   1.922   1_545  S
O287        C292   1.282       .  A
O288       Ni290   1.923       .  S
O288        C291   1.281       .  A
Ni289      Ni290   2.386       .  S
O295       Ni303   1.925       .  S
O295        C305   1.282   1_655  A
O296       Ni303   1.931       .  S
O296        C306   1.283       .  A
O297       Ni303   1.925       .  S
O297        C307   1.283       .  A
O298       Ni303   1.922       .  S
O298        C308   1.283   1_655  A
O299       Ni304   1.920       .  S
O299        C308   1.281   1_655  A
O300       Ni304   1.923       .  S
O300        C307   1.281       .  A
O301       Ni304   1.933       .  S
O301        C306   1.284       .  A
O302       Ni304   1.930       .  S
O302        C305   1.284   1_655  A
Ni303      Ni304   2.387       .  S
C309        C310   1.410       .  A
C309        C314   1.398       .  A
C309        H316   1.080       .  S
C310        C311   1.404       .  A
C311        C312   1.395       .  A
C311       Br318   1.919       .  S
C312        C313   1.411       .  A
C312        H317   1.083       .  S
C313        C314   1.406       .  A
C314       Br315   1.919       .  S
C319        C320   1.406       .  A
C319        C324   1.393       .  A
C319        H326   1.084       .  S
C320        C321   1.410       .  A
C321        C322   1.401       .  A
C321       Br328   1.919       .  S
C322        C323   1.409       .  A
C322        H327   1.083       .  S
C323        C324   1.410       .  A
C324       Br325   1.920       .  S
C329        C330   1.409       .  A
C329        C334   1.396       .  A
C329        H336   1.080       .  S
C330        C331   1.406       .  A
C331        C332   1.398       .  A
C331       Br338   1.919       .  S
C332        C333   1.412       .  A
C332        H337   1.081       .  S
C333        C334   1.409       .  A
C334       Br335   1.921       .  S
C339        C340   1.408       .  A
C339        C344   1.404       .  A
C339        H346   1.082       .  S
C340        C341   1.401       .  A
C341        C342   1.398       .  A
C341       Br348   1.918       .  S
C342        C343   1.416       .  A
C342        H347   1.083       .  S
C343        C344   1.413       .  A
C344       Br345   1.919       .  S
C349        C350   1.411       .  A
C349        C354   1.400       .  A
C349        H356   1.081       .  S
C350        C351   1.406       .  A
C351        C352   1.395       .  A
C351       Br358   1.918       .  S
C352        C353   1.411       .  A
C352        H357   1.083       .  S
C353        C354   1.408       .  A
C354       Br355   1.919       .  S
C359        C360   1.400       .  A
C359        C364   1.398       .  A
C359        H366   1.083       .  S
C360        C361   1.408       .  A
C361        C362   1.394       .  A
C361       Br368   1.920       .  S
C362        C363   1.405       .  A
C362        H367   1.083       .  S
C363        C364   1.417       .  A
C364       Br365   1.920       .  S
C369        C370   1.404       .  A
C369        C374   1.395       .  A
C369        H376   1.082       .  S
C370        C371   1.425       .  A
C371        C372   1.397       .  A
C371       Br378   1.919       .  S
C372        C373   1.396       .  A
C372        H377   1.084       .  S
C373        C374   1.411       .  A
C374       Br375   1.920       .  S
C379        C380   1.413       .  A
C379        C384   1.399       .  A
C379        H386   1.083       .  S
C380        C381   1.415       .  A
C381        C382   1.403       .  A
C381       Br388   1.920       .  S
C382        C383   1.407       .  A
C382        H387   1.083       .  S
C383        C384   1.405       .  A
C384       Br385   1.917       .  S
C389        C390   1.414       .  A
C389        C394   1.400       .  A
C389        H396   1.083       .  S
C390        C391   1.414       .  A
C391        C392   1.400       .  A
C391       Br398   1.920       .  S
C392        C393   1.406       .  A
C392        H397   1.082       .  S
C393        C394   1.404       .  A
C394       Br395   1.918       .  S
C399        C400   1.409       .  A
C399        C404   1.402       .  A
C399        H406   1.083       .  S
C400        C401   1.409       .  A
C401        C402   1.397       .  A
C401       Br408   1.921       .  S
C402        C403   1.410       .  A
C402        H407   1.083       .  S
C403        C404   1.413       .  A
C404       Br405   1.920       .  S
C409        C410   1.408       .  A
C409        C414   1.399       .  A
C409        H416   1.083       .  S
C410        C411   1.400       .  A
C411        C412   1.390       .  A
C411       Br418   1.918       .  S
C412        C413   1.412       .  A
C412        H417   1.083       .  S
C413        C414   1.409       .  A
C414       Br415   1.919       .  S
C419        C420   1.392       .  A
C419        C424   1.398       .  A
C419        H426   1.084       .  S
C420        C421   1.410       .  A
C421        C422   1.401       .  A
C421       Br428   1.916       .  S
C422        C423   1.407       .  A
C422        H427   1.083       .  S
C423        C424   1.430       .  A
C424       Br425   1.921       .  S
C429        C430   1.401       .  A
C429        C434   1.396       .  A
C429        H436   1.083       .  S
C430        C431   1.418       .  A
C431        C432   1.398       .  A
C431       Br438   1.918       .  S
C432        C433   1.398       .  A
C432        H437   1.084       .  S
C433        C434   1.414       .  A
C434       Br435   1.916       .  S
C439        C440   1.398       .  A
C439        C444   1.397       .  A
C439        H446   1.083       .  S
C440        C441   1.414       .  A
C441        C442   1.391       .  A
C441       Br448   1.924   1_545  S
C442        C443   1.398       .  A
C442        H447   1.078       .  S
C443        C444   1.414       .  A
C444       Br445   1.910       .  S
C449        C450   1.406       .  A
C449        C454   1.396       .  A
C449        H456   1.079       .  S
C450        C451   1.408       .  A
C451        C452   1.399       .  A
C451       Br458   1.920       .  S
C452        C453   1.410       .  A
C452        H457   1.078       .  S
C453        C454   1.410       .  A
C454       Br455   1.917       .  S
C459        C460   1.396       .  A
C459        C464   1.396       .  A
C459        H466   1.083       .  S
C460        C461   1.418       .  A
C461        C462   1.399       .  A
C461       Br468   1.923       .  S
C462        C463   1.400       .  A
C462        H467   1.083       .  S
C463        C464   1.418       .  A
C464       Br465   1.911       .  S
C469        C470   1.407       .  A
C469        C474   1.403       .  A
C469        H476   1.080       .  S
C470        C471   1.405       .  A
C471        C472   1.390       .  A
C471       Br478   1.909       .  S
C472        C473   1.409       .  A
C472        H477   1.083       .  S
C473        C474   1.409       .  A
C474       Br475   1.919       .  S
C479        C480   1.405       .  A
C479        C484   1.391       .  A
C479        H486   1.084       .  S
C480        C481   1.410       .  A
C481        C482   1.400       .  A
C481       Br488   1.920       .  S
C482        C483   1.408       .  A
C482        H487   1.082       .  S
C483        C484   1.407       .  A
C484       Br485   1.914       .  S
C489        C490   1.398       .  A
C489        C494   1.404       .  A
C489        H496   1.084       .  S
C490        C491   1.407       .  A
C491        C492   1.389       .  A
C491       Br498   1.925       .  S
C492        C493   1.401       .  A
C492        H497   1.068       .  S
C493        C494   1.420       .  A
C494       Br495   1.906       .  S
C499        C500   1.407       .  A
C499        C504   1.395       .  A
C499        H506   1.083       .  S
C500        C501   1.404       .  A
C501        C502   1.395       .  A
C501       Br508   1.917       .  S
C502        C503   1.411       .  A
C502        H507   1.083       .  S
C503        C504   1.412       .  A
C504       Br505   1.922       .  S
C509        C510   1.406       .  A
C509        C514   1.394       .  A
C509        H516   1.084       .  S
C510        C511   1.409       .  A
C511        C512   1.401       .  A
C511       Br518   1.918       .  S
C512        C513   1.405       .  A
C512        H517   1.083       .  S
C513        C514   1.405       .  A
C514       Br515   1.914       .  S
C519        C520   1.409       .  A
C519        C524   1.394       .  A
C519        H526   1.079       .  S
C520        C521   1.419       .  A
C521        C522   1.398       .  A
C521       Br528   1.906       .  S
C522        C523   1.394       .  A
C522        H527   1.084       .  S
C523        C524   1.404       .  A
C524       Br525   1.921       .  S
C529        C530   1.401       .  A
C529        C534   1.394       .  A
C529        H536   1.083       .  S
C530        C531   1.426       .  A
C531        C532   1.397       .  A
C531       Br538   1.923       .  S
C532        C533   1.395       .  A
C532        H537   1.084       .  S
C533        C534   1.408       .  A
C534       Br535   1.902       .  S
C539        C540   1.402       .  A
C539        C544   1.398       .  A
C539        H546   1.083       .  S
C540        C541   1.427       .  A
C541        C542   1.398       .  A
C541       Br548   1.925       .  S
C542        C543   1.393       .  A
C542        H547   1.084       .  S
C543        C544   1.411       .  A
C544       Br545   1.912       .  S
C549        C550   1.408       .  A
C549        C554   1.400       .  A
C549        H556   1.082       .  S
C550        C551   1.422       .  A
C551        C552   1.395       .  A
C551       Br558   1.902       .  S
C552        C553   1.393       .  A
C552        H557   1.084       .  S
C553        C554   1.412       .  A
C554       Br555   1.921       .  S
C559        C560   1.406       .  A
C559        C564   1.394       .  A
C559        H566   1.082       .  S
C560        C561   1.416       .  A
C561        C562   1.395       .  A
C561       Br568   1.894       .  S
C562        C563   1.393       .  A
C562        H567   1.084       .  S
C563        C564   1.409       .  A
C564       Br565   1.921       .  S
C569        C570   1.406       .  A
C569        C574   1.404       .  A
C569        H576   1.081       .  S
C570        C571   1.406       .  A
C571        C572   1.397       .  A
C571       Br578   1.918       .  S
C572        C573   1.410       .  A
C572        H577   1.084       .  S
C573        C574   1.410       .  A
C574       Br575   1.918       .  S
C579        C580   1.404       .  A
C579        C584   1.400       .  A
C579        H586   1.079       .  S
C580        C581   1.402       .  A
C581        C582   1.400       .  A
C581       Br588   1.917       .  S
C582        C583   1.412       .  A
C582        H587   1.083       .  S
C583        C584   1.410       .  A
C584       Br585   1.919       .  S
C589        C590   1.412       .  A
C589        C594   1.396       .  A
C589        H596   1.077       .  S
C590        C591   1.426       .  A
C591        C592   1.400       .  A
C591       Br598   1.912       .  S
C592        C593   1.394       .  A
C592        H597   1.085       .  S
C593        C594   1.402       .  A
C594       Br595   1.920       .  S
C599        C600   1.402       .  A
C599        C604   1.399       .  A
C599        H606   1.073       .  S
C600        C601   1.405       .  A
C601        C602   1.397       .  A
C601       Br608   1.916       .  S
C602        C603   1.411       .  A
C602        H607   1.084       .  S
C603        C604   1.407       .  A
C604       Br605   1.919       .  S
C609        C610   1.406       .  A
C609        C614   1.399       .  A
C609        H616   1.084       .  S
C610        C611   1.408       .  A
C611        C612   1.403       .  A
C611       Br618   1.919       .  S
C612        C613   1.414       .  A
C612        H617   1.083       .  S
C613        C614   1.417       .  A
C614       Br615   1.919       .  S
C619        C620   1.405       .  A
C619        C624   1.401       .  A
C619        H626   1.083       .  S
C620        C621   1.417       .  A
C621        C622   1.402       .  A
C621       Br628   1.910       .  S
C622        C623   1.398       .  A
C622        H627   1.084       .  S
C623        C624   1.411       .  A
C624       Br625   1.919       .  S
C629        C630   1.405       .  A
C629        C634   1.394       .  A
C629        H636   1.074       .  S
C630        C631   1.421       .  A
C631        C632   1.400       .  A
C631       Br638   1.919       .  S
C632        C633   1.400       .  A
C632        H637   1.083       .  S
C633        C634   1.408       .  A
C634       Br635   1.921       .  S
C639        C640   1.407       .  A
C639        C644   1.397       .  A
C639        H646   1.081       .  S
C640        C641   1.409       .  A
C641        C642   1.402       .  A
C641       Br648   1.919       .  S
C642        C643   1.414       .  A
C642        H647   1.082       .  S
C643        C644   1.413       .  A
C644       Br645   1.916       .  S
C649        C650   1.402       .  A
C649        C654   1.398       .  A
C649        H656   1.083       .  S
C650        C651   1.425       .  A
C651        C652   1.394       .  A
C651       Br658   1.925       .  S
C652        C653   1.392       .  A
C652        H657   1.084       .  S
C653        C654   1.410       .  A
C654       Br655   1.913       .  S
C659        C660   1.394       .  A
C659        C664   1.393       .  A
C659        H666   1.084       .  S
C660        C661   1.417       .  A
C661        C662   1.401       .  A
C661       Br668   1.921       .  S
C662        C663   1.400       .  A
C662        H667   1.083       .  S
C663        C664   1.420       .  A
C664       Br665   1.910       .  S
C669        C670   1.410       .  A
C669        C674   1.394       .  A
C669        H676   1.084       .  S
C670        C671   1.408       .  A
C671        C672   1.397       .  A
C671       Br678   1.920       .  S
C672        C673   1.408       .  A
C672        H677   1.082       .  S
C673        C674   1.403       .  A
C674       Br675   1.919       .  S
C679        C680   1.400       .  A
C679        C684   1.395       .  A
C679        H686   1.083       .  S
C680        C681   1.412       .  A
C681        C682   1.395       .  A
C681       Br688   1.912       .  S
C682        C683   1.398       .  A
C682        H687   1.084       .  S
C683        C684   1.414       .  A
C684       Br685   1.922       .  S
C689        C690   1.411       .  A
C689        C694   1.397       .  A
C689        H696   1.083       .  S
C690        C691   1.415       .  A
C691        C692   1.394       .  A
C691       Br698   1.923       .  S
C692        C693   1.402       .  A
C692        H697   1.082       .  S
C693        C694   1.405       .  A
C694       Br695   1.916       .  S
C699        C700   1.415       .  A
C699        C704   1.398       .  A
C699        H706   1.083       .  S
C700        C701   1.416       .  A
C701        C702   1.398       .  A
C701       Br708   1.921       .  S
C702        C703   1.404       .  A
C702        H707   1.083       .  S
C703        C704   1.401       .  A
C704       Br705   1.919       .  S
C709        C710   1.400       .  A
C709        C714   1.405       .  A
C709        H716   1.083       .  S
C710        C711   1.409       .  A
C711        C712   1.394       .  A
C711       Br718   1.924       .  S
C712        C713   1.403       .  A
C712        H717   1.058       .  S
C713        C714   1.417       .  A
C714       Br715   1.904       .  S
C719        C720   1.401       .  A
C719        C724   1.399       .  A
C719        H726   1.083       .  S
C720        C721   1.418       .  A
C721        C722   1.400       .  A
C721       Br728   1.922       .  S
C722        C723   1.399       .  A
C722        H727   1.084       .  S
C723        C724   1.415       .  A
C724       Br725   1.917       .  S
C729        C730   1.400       .  A
C729        C734   1.398       .  A
C729        H736   1.083       .  S
C730        C731   1.415       .  A
C731        C732   1.397       .  A
C731       Br738   1.922       .  S
C732        C733   1.398       .  A
C732        H737   1.083       .  S
C733        C734   1.418       .  A
C734       Br735   1.927       .  S
C739        C740   1.390       .  A
C739        C744   1.391       .  A
C739        H746   1.082       .  S
C740        C741   1.414       .  A
C741        C742   1.405       .  A
C741       Br748   1.917       .  S
C742        C743   1.406       .  A
C742        H747   1.083       .  S
C743        C744   1.423       .  A
C744       Br745   1.924       .  S
C749        C750   1.405       .  A
C749        C754   1.396       .  A
C749        H756   1.083       .  S
C750        C751   1.422       .  A
C751        C752   1.398       .  A
C751       Br758   1.921       .  S
C752        C753   1.396       .  A
C752        H757   1.084       .  S
C753        C754   1.407       .  A
C754       Br755   1.914       .  S
C759        C760   1.401       .  A
C759        C764   1.401       .  A
C759        H766   1.083       .  S
C760        C761   1.414       .  A
C761        C762   1.395       .  A
C761       Br768   1.921       .  S
C762        C763   1.394       .  A
C762        H767   1.071       .  S
C763        C764   1.417       .  A
C764       Br765   1.909       .  S
C769        C770   1.410       .  A
C769        C774   1.400       .  A
C769        H776   1.073       .  S
C770        C771   1.420       .  A
C771        C772   1.398       .  A
C771       Br778   1.919       .  S
C772        C773   1.405       .  A
C772        H777   1.084       .  S
C773        C774   1.405       .  A
C774       Br775   1.919       .  S
C779        C780   1.403       .  A
C779        C784   1.402       .  A
C779        H786   1.080       .  S
C780        C781   1.402       .  A
C781        C782   1.398       .  A
C781       Br788   1.918       .  S
C782        C783   1.413       .  A
C782        H787   1.083       .  S
C783        C784   1.412       .  A
C784       Br785   1.919       .  S
