geometry optimzed in LAMMPS
_audit_creation_date              2020-11-30 
_audit_creation_method            'lammps2cif' 
_symmetry_space_group_name_H-M    'P1' 
_symmetry_Int_Tables_number       1 
_symmetry_cell_setting            triclinic 
loop_ 
_symmetry_equiv_pos_as_xyz 
  x,y,z 
_cell_length_a                    25.696168511617692 
_cell_length_b                    24.92339910392862 
_cell_length_c                    37.452721172272945 
_cell_angle_alpha                 89.04781933617744 
_cell_angle_beta                  89.77484830818904 
_cell_angle_gamma                 121.17457136588447 
loop_ 
_atom_site_label 
_atom_site_type_symbol 
_atom_site_fract_x 
_atom_site_fract_y 
_atom_site_fract_z 
_atom_site_charge 
In1        In  0.00358720  0.02346368  0.66292378     1.36870
C2          C  0.42948175  0.53048113  0.61684931     0.77710
O3          O  0.07752182  0.06633169  0.62194290    -0.60740
O4          O  0.04179085  0.47079855  0.63598115    -0.51650
C5          C  0.08334059  0.10023334  0.70992671     0.70370
O6          O  0.05275061  0.11593347  0.69067748    -0.46510
C7          C  0.42318041  0.44538051  0.71118706     0.75080
O8          O  0.46969038  0.07811216  0.63294581    -0.58370
O9          O  0.45300166  0.42981565  0.69140358    -0.48460
O10         O  0.42757554  0.48010217  0.62457823    -0.54800
C11         C  0.07950135  0.51743090  0.61699014     0.85260
O12         O  0.07297022  0.04591308  0.70433871    -0.56690
O13         O  0.43393583  0.50022495  0.70516487    -0.59980
C14         C  0.28619488  0.02829019  0.49688532     0.00690
C15         C  0.22931322  0.02164489  0.49908873     0.00690
In16       In  0.97748128  0.96692025  0.33821265     1.36870
C17         C  0.06253581  0.98425764  0.38458951     0.77710
O18         O  0.44127413  0.01466817  0.36989258    -0.60740
O19         O  0.39364164  0.41533290  0.37406432    -0.51650
C20         C  0.98849515  0.05175022  0.29013659     0.70370
O21         O  0.03092238  0.06082774  0.31071203    -0.46510
C22         C  0.47231973  0.38380423  0.29273219     0.75080
O23         O  0.06948425  0.02469419  0.36136799    -0.58370
O24         O  0.42476614  0.37896998  0.30603271    -0.48460
O25         O  0.01196800  0.43350873  0.38337965    -0.54800
C26         C  0.39769638  0.46566626  0.38383982     0.85260
O27         O  0.44024350  0.99910097  0.29458788    -0.56690
O28         O  0.02121235  0.42944677  0.30362984    -0.59980
C29         C  0.99895542  0.26214705  0.16962000     0.00690
C30         C  0.99826303  0.20627504  0.17020647     0.00690
In31       In  0.01325527  0.99302771  0.00165716     1.36870
C32         C  0.43463260  0.41448255  0.95488736     0.77710
O33         O  0.03296902  0.06840318  0.96239639    -0.60740
O34         O  0.09993037  0.04389028  0.96845314    -0.51650
C35         C  0.00381219  0.06383817  0.05039731     0.70370
O36         O  0.45907153  0.02420267  0.03260568    -0.46510
C37         C  0.02183746  0.41496479  0.04643549     0.75080
O38         O  0.42208449  0.44532685  0.97611582    -0.58370
O39         O  0.06837730  0.45981739  0.03102704    -0.48460
O40         O  0.48674319  0.42219534  0.95905156    -0.54800
C41         C  0.08355731  0.07750618  0.95203257     0.85260
O42         O  0.05359595  0.06818174  0.04233306    -0.56690
O43         O  0.47218695  0.41020526  0.03827913    -0.59980
C44         C  0.22203206  0.24245195  0.83199847     0.00690
C45         C  0.27477965  0.30028883  0.83472970     0.00690
C46         C  0.17622056  0.12974643  0.91320326    -0.05650
C47         C  0.11965411  0.12229293  0.92230196     0.00270
C48         C  0.09804728  0.15513622  0.90165135    -0.08300
C49         C  0.13274921  0.19138787  0.87204108    -0.05670
C50         C  0.19020193  0.20091366  0.86381946     0.00260
C51         C  0.21178667  0.16783617  0.88411911    -0.08210
C52         C  0.26950207  0.16741858  0.87594850     0.62170
H53         H  0.19258707  0.10433130  0.92857278     0.12870
H54         H  0.11569986  0.21439803  0.85519914     0.12880
C55         C  0.03932752  0.15351909  0.91041509     0.62410
F56         F  0.30832100  0.19158089  0.90455058    -0.22760
F57         F  0.30006673  0.20147086  0.84564214    -0.20090
F58         F  0.25482393  0.10622254  0.87114440    -0.19770
F59         F  0.04122775  0.17333697  0.94494284    -0.19820
F60         F  0.99003662  0.09336009  0.90676653    -0.20140
F61         F  0.03051166  0.19281999  0.88801380    -0.22820
C62         C  0.36886069  0.33048039  0.86752659    -0.05650
C63         C  0.30980216  0.32089563  0.86905929     0.00270
C64         C  0.29068569  0.33608005  0.90125065    -0.08300
C65         C  0.33166314  0.36064109  0.92960303    -0.05670
C66         C  0.39200244  0.37517083  0.92659136     0.00260
C67         C  0.41058595  0.35773261  0.89534749    -0.08210
C68         C  0.47448846  0.36960161  0.89029922     0.62170
H69         H  0.38314515  0.31844965  0.84325419     0.12870
H70         H  0.31719481  0.37266346  0.95389397     0.12880
C71         C  0.23090790  0.33301492  0.90756577     0.62410
F72         F  0.48175749  0.34783521  0.85799206    -0.22760
F73         F  0.48660400  0.33896534  0.91713731    -0.20090
F74         F  0.51643372  0.43332387  0.89099308    -0.19770
F75         F  0.19774701  0.28803495  0.93375844    -0.19820
F76         F  0.19633495  0.31942001  0.87762890    -0.20140
F77         F  0.24223120  0.39049026  0.91920708    -0.22820
C78         C  0.06170505  0.40177417  0.10328050    -0.05650
C79         C  0.02449013  0.37358762  0.07397230     0.00270
C80         C  0.98483718  0.30788160  0.07395204    -0.08300
C81         C  0.97935809  0.27296159  0.10505690    -0.05670
C82         C  0.01340935  0.30134475  0.13582238     0.00260
C83         C  0.05761929  0.36705109  0.13428067    -0.08210
C84         C  0.09723148  0.40355785  0.16552464     0.62170
H85         H  0.09141530  0.45232147  0.10269768     0.12870
H86         H  0.94516983  0.22359976  0.10616878     0.12880
C87         C  0.94817718  0.27481820  0.04123942     0.62410
F88         F  0.14916342  0.45796255  0.15368530    -0.22760
F89         F  0.11627544  0.36937001  0.18474506    -0.20090
F90         F  0.56515062  0.42018174  0.18784005    -0.19770
F91         F  0.98581909  0.29525596  0.01128954    -0.19820
F92         F  0.40224660  0.28748840  0.03649577    -0.20140
F93         F  0.42189117  0.21042309  0.04442073    -0.22820
C94         C  0.05087314  0.16066128  0.08550727    -0.05650
C95         C  0.99926618  0.10183634  0.07895334     0.00270
C96         C  0.44753885  0.07893488  0.10165612    -0.08300
C97         C  0.44972879  0.11614608  0.13003653    -0.05670
C98         C  0.00175208  0.17447448  0.13732070     0.00260
C99         C  0.05400131  0.19671195  0.11482644    -0.08210
C100        C  0.11482728  0.25599704  0.12049943     0.62170
H101        H  0.09049754  0.17779708  0.06816745     0.12870
H102        H  0.41049057  0.09889660  0.14735902     0.12880
C103        C  0.39108534  0.01445070  0.09723115     0.62410
F104        F  0.16044655  0.24208914  0.11998236    -0.22760
F105        F  0.11800492  0.28335378  0.15254307    -0.20090
F106        F  0.12571108  0.29872745  0.09317362    -0.19770
F107        F  0.40692690  0.96916366  0.09783416    -0.19820
F108        F  0.36371233  0.01266662  0.06520386    -0.20140
F109        F  0.34860460  0.99961237  0.12431093    -0.22820
C110        C  0.43979775  0.09403582  0.25162423    -0.05650
C111        C  0.99375201  0.09788480  0.26263112     0.00270
C112        C  0.04949422  0.14226774  0.24563994    -0.08300
C113        C  0.04794384  0.17673162  0.21602472    -0.05670
C114        C  0.99370122  0.17143308  0.20414650     0.00260
C115        C  0.43853683  0.13030062  0.22294124    -0.08210
C116        C  0.37684262  0.12080878  0.21416097     0.62170
H117        H  0.39745856  0.06130707  0.26534522     0.12870
H118        H  0.08963052  0.20840084  0.20170636     0.12880
C119        C  0.11031864  0.15278160  0.25792454     0.62410
F120        F  0.33649226  0.05809168  0.20764343    -0.22760
F121        F  0.37800628  0.15498900  0.18473056    -0.20090
F122        F  0.35549539  0.13819293  0.24301661    -0.19770
F123        F  0.11056228  0.09754291  0.25599093    -0.19820
F124        F  0.12032902  0.17332650  0.29271287    -0.20140
F125        F  0.15831723  0.19774291  0.23710831    -0.22820
C126        C  0.43499594  0.33219450  0.23506619    -0.05650
C127        C  0.47182140  0.34264243  0.26468611     0.00270
C128        C  0.01264507  0.32072428  0.26479388    -0.08300
C129        C  0.01907759  0.29378468  0.23375330    -0.05670
C130        C  0.98473056  0.28592765  0.20292248     0.00260
C131        C  0.44023386  0.30402194  0.20403412    -0.08210
C132        C  0.40169121  0.30025302  0.17227517     0.62170
H133        H  0.40463178  0.35020623  0.23547949     0.12870
H134        H  0.05438182  0.28266451  0.23277322     0.12880
C135        C  0.04986237  0.32621803  0.29744574     0.62410
F136        F  0.35021654  0.30033786  0.18327402    -0.22760
F137        F  0.38200855  0.24614352  0.15349359    -0.20090
F138        F  0.93511541  0.35161371  0.14973806    -0.19770
F139        F  0.51289756  0.30622732  0.32768434    -0.19820
F140        F  0.09610344  0.38781551  0.30135290    -0.20140
F141        F  0.07582573  0.28966987  0.29469058    -0.22820
C142        C  0.18777712  0.56082633  0.45322178    -0.05650
C143        C  0.19014646  0.00948972  0.46707581     0.00270
C144        C  0.14992843  0.94905617  0.45318427    -0.08300
C145        C  0.10920449  0.94321017  0.42629899    -0.05670
C146        C  0.10913007  0.99536980  0.41156421     0.00260
C147        C  0.15106542  0.55588924  0.42435454    -0.08210
C148        C  0.15720811  0.61538362  0.40822937     0.62170
H149        H  0.21557509  0.60583904  0.46503996     0.12870
H150        H  0.07719878  0.89698195  0.41645023     0.12880
C151        C  0.14522065  0.88858062  0.46595640     0.62410
F152        F  0.20013012  0.16862515  0.42549552    -0.22760
F153        F  0.10208502  0.11268506  0.41058844    -0.20090
F154        F  0.17552156  0.62190644  0.37282379    -0.19770
F155        F  0.08865115  0.85004368  0.48174774    -0.19820
F156        F  0.18902406  0.39736738  0.49015355    -0.20140
F157        F  0.15130694  0.35839187  0.43696127    -0.22820
C158        C  0.34325891  0.01684764  0.40325570    -0.05650
C159        C  0.35656769  0.46981249  0.40983459     0.00270
C160        C  0.34040352  0.43767479  0.44316357    -0.08300
C161        C  0.31431421  0.45659183  0.46946411    -0.05670
C162        C  0.30595604  0.00798529  0.46429568     0.00260
C163        C  0.32142069  0.03902447  0.43011389    -0.08210
C164        C  0.32346111  0.09933106  0.42053961     0.62170
H165        H  0.35583484  0.04097187  0.37741819     0.12870
H166        H  0.30250195  0.43262068  0.49521479     0.12880
C167        C  0.35377236  0.38627776  0.45170812     0.62410
F168        F  0.38009805  0.14251056  0.40619237    -0.22760
F169        F  0.31438494  0.12659687  0.44935906    -0.20090
F170        F  0.28006647  0.58751101  0.39523342    -0.19770
F171        F  0.41549659  0.90983360  0.44852339    -0.19820
F172        F  0.32306015  0.33759716  0.42832012    -0.20140
F173        F  0.33561633  0.36220178  0.48611316    -0.22820
C174        C  0.16592253  0.07456137  0.57475264    -0.05650
C175        C  0.12245410  0.51672942  0.59040093     0.00270
C176        C  0.12059264  0.46171694  0.57922739    -0.08300
C177        C  0.15767735  0.46640387  0.55011230    -0.05670
C178        C  0.20046040  0.02416173  0.53373190     0.00260
C179        C  0.20594586  0.07970029  0.54749582    -0.08210
C180        C  0.25142850  0.14578708  0.53479484     0.62170
H181        H  0.16901073  0.11714245  0.58389957     0.12900
H182        H  0.15243348  0.42401969  0.53968254     0.12880
C183        C  0.07971820  0.39814602  0.59731391     0.62410
F184        F  0.28332416  0.18141877  0.56366508    -0.22760
F185        F  0.22113574  0.67221412  0.51901377    -0.20090
F186        F  0.29282796  0.14815149  0.51085216    -0.19770
F187        F  0.01934904  0.37962258  0.59275974    -0.19820
F188        F  0.09242434  0.90184064  0.63337941    -0.20140
F189        F  0.08849580  0.35222220  0.58342296    -0.22820
C190        C  0.29577797  0.48929954  0.55687851    -0.05650
C191        C  0.32283040  0.03649631  0.53006282     0.00270
C192        C  0.38583129  0.08344460  0.53323691    -0.08300
C193        C  0.41729078  0.08185927  0.56359266    -0.05670
C194        C  0.38997088  0.53377875  0.58946235     0.00260
C195        C  0.32774758  0.48748808  0.58673271    -0.08210
C196        C  0.29501217  0.43597541  0.61503314     0.62170
H197        H  0.25029644  0.45055120  0.55301703     0.12870
H198        H  0.46519591  0.11615532  0.56633950     0.12880
C199        C  0.42211278  0.13345344  0.50456833     0.62410
F200        F  0.23250745  0.90363577  0.61070485    -0.22760
F201        F  0.30706635  0.96177512  0.64863376    -0.20090
F202        F  0.31416113  0.39349182  0.61301299    -0.19770
F203        F  0.39597278  0.16855197  0.49757729    -0.19820
F204        F  0.42558741  0.60604428  0.47371645    -0.20140
F205        F  0.48134710  0.67487114  0.51490174    -0.22820
C206        C  0.36827231  0.43565657  0.76728482    -0.05650
C207        C  0.38132156  0.40523510  0.74062373     0.00270
C208        C  0.35689296  0.33976228  0.74402235    -0.08300
C209        C  0.32292832  0.30811640  0.77499525    -0.05670
C210        C  0.30892489  0.33813090  0.80166844     0.00260
C211        C  0.33344077  0.40403650  0.79798773    -0.08210
C212        C  0.32746796  0.44325590  0.82668803     0.62170
H213        H  0.38830141  0.48587440  0.76470668     0.12870
H214        H  0.30954816  0.25977502  0.77932462     0.12880
C215        C  0.36603098  0.30282750  0.71537325     0.62410
F216        F  0.34564492  0.50314276  0.81421585    -0.22760
F217        F  0.36378971  0.44935336  0.85525696    -0.20090
F218        F  0.26809787  0.41641739  0.83818890    -0.19770
F219        F  0.42627909  0.31912486  0.71411246    -0.19820
F220        F  0.34960740  0.31523872  0.68250743    -0.20140
F221        F  0.33075098  0.23876278  0.72193169    -0.22820
C222        C  0.12147459  0.19242866  0.74855936    -0.05650
C223        C  0.12550764  0.14101639  0.73795966     0.00270
C224        C  0.16715035  0.12860297  0.75552824    -0.08300
C225        C  0.19779946  0.16396048  0.78544061    -0.05670
C226        C  0.19260905  0.21442151  0.79695296     0.00260
C227        C  0.15461750  0.22992350  0.77731882    -0.08210
C228        C  0.14435780  0.28297382  0.78541108     0.62170
H229        H  0.09061151  0.20281650  0.73472714     0.12870
H230        H  0.22590098  0.15155525  0.80045776     0.12880
C231        C  0.18008971  0.07878657  0.74314248     0.62410
F232        F  0.15810159  0.32112910  0.75529743    -0.22760
F233        F  0.17948996  0.31947766  0.81257017    -0.20090
F234        F  0.08392752  0.25859987  0.79472505    -0.19770
F235        F  0.19231346  0.08580777  0.70677695    -0.19820
F236        F  0.13062185  0.01967882  0.75075547    -0.20140
F237        F  0.23015718  0.08342949  0.75992061    -0.22820
In238      In  0.00364772  0.52343495  0.66292509     1.36870
C239        C  0.42941460  0.03049864  0.61684622     0.77710
O240        O  0.07758209  0.56630707  0.62194496    -0.60740
O241        O  0.04172345  0.97082268  0.63598143    -0.51650
C242        C  0.08339096  0.60021088  0.70992876     0.70370
O243        O  0.05280450  0.61590688  0.69067361    -0.46510
C244        C  0.42313086  0.94540181  0.71118702     0.75080
O245        O  0.46975800  0.57809017  0.63295148    -0.58370
O246        O  0.45295186  0.92984385  0.69139878    -0.48460
O247        O  0.42751195  0.98012302  0.62457922    -0.54800
C248        C  0.07943658  0.01745234  0.61699004     0.85260
O249        O  0.07302493  0.54589057  0.70434551    -0.56690
O250        O  0.43387911  0.00024481  0.70516836    -0.59980
C251        C  0.28628919  0.52832119  0.49688909     0.00690
C252        C  0.22940392  0.52166804  0.49908776     0.00690
In253      In  0.97758959  0.46696874  0.33820955     1.36870
C254        C  0.06265184  0.48429619  0.38457775     0.77710
O255        O  0.44140461  0.51472684  0.36990007    -0.60740
O256        O  0.39352730  0.91527564  0.37406359    -0.51650
C257        C  0.98858344  0.55179660  0.29013799     0.70370
O258        O  0.03102103  0.56087507  0.31070487    -0.46510
C259        C  0.47224675  0.88376987  0.29273693     0.75080
O260        O  0.06960479  0.52473052  0.36135330    -0.58370
O261        O  0.42468271  0.87892811  0.30602630    -0.48460
O262        O  0.01185813  0.93346399  0.38338586    -0.54800
C263        C  0.39757109  0.96560622  0.38383451     0.85260
O264        O  0.44033431  0.49914679  0.29459434    -0.56690
O265        O  0.02112930  0.92941058  0.30364554    -0.59980
C266        C  0.99896381  0.76216238  0.16962484     0.00690
C267        C  0.99828300  0.70629642  0.17021380     0.00690
In268      In  0.01323814  0.49302728  0.00166249     1.36870
C269        C  0.43464595  0.91447967  0.95488595     0.77710
O270        O  0.03295829  0.56840449  0.96240171    -0.60740
O271        O  0.09991674  0.54388809  0.96846234    -0.51650
C272        C  0.00380500  0.56384179  0.05040491     0.70370
O273        O  0.45906023  0.52420592  0.03261581    -0.46510
C274        C  0.02185690  0.91496804  0.04643193     0.75080
O275        O  0.42209901  0.94532259  0.97611603    -0.58370
O276        O  0.06839704  0.95982325  0.03102510    -0.48460
O277        O  0.48675851  0.92219539  0.95904634    -0.54800
C278        C  0.08354735  0.57750589  0.95204051     0.85260
O279        O  0.05358646  0.56818322  0.04233710    -0.56690
O280        O  0.47220615  0.91020472  0.03827245    -0.59980
C281        C  0.22203511  0.74244386  0.83200754     0.00690
C282        C  0.27477517  0.80028721  0.83473726     0.00690
C283        C  0.17621625  0.62974482  0.91321580    -0.05650
C284        C  0.11964904  0.62229262  0.92231116     0.00270
C285        C  0.09804614  0.65513711  0.90165844    -0.08300
C286        C  0.13275079  0.69138560  0.87204827    -0.05670
C287        C  0.19020388  0.70090983  0.86382958     0.00260
C288        C  0.21178663  0.66783412  0.88413264    -0.08210
C289        C  0.26950460  0.66741873  0.87596716     0.62170
H290        H  0.19258037  0.60432968  0.92858749     0.12870
H291        H  0.11570306  0.71439458  0.85520416     0.12880
C292        C  0.03932801  0.65352488  0.91041988     0.62410
F293        F  0.30831700  0.69158000  0.90457215    -0.22760
F294        F  0.30007563  0.70147378  0.84566287    -0.20090
F295        F  0.25482912  0.60622352  0.87116313    -0.19770
F296        F  0.04122683  0.67334315  0.94494738    -0.19820
F297        F  0.99003469  0.59336763  0.90677037    -0.20140
F298        F  0.03051776  0.69282862  0.88801761    -0.22820
C299        C  0.36886350  0.83048424  0.86752601    -0.05650
C300        C  0.30980391  0.82089575  0.86906408     0.00270
C301        C  0.29069069  0.83607506  0.90125831    -0.08300
C302        C  0.33167221  0.86063448  0.92960866    -0.05670
C303        C  0.39201196  0.87516712  0.92659213     0.00260
C304        C  0.41059213  0.85773320  0.89534537    -0.08210
C305        C  0.47449394  0.86960228  0.89029284     0.62170
H306        H  0.38314515  0.81845706  0.84325117     0.12870
H307        H  0.31720671  0.87265382  0.95390184     0.12880
C308        C  0.23091305  0.83300793  0.90757797     0.62410
F309        F  0.48175816  0.84783687  0.85798407    -0.22760
F310        F  0.48661308  0.83896490  0.91712851    -0.20090
F311        F  0.51643960  0.93332441  0.89098672    -0.19770
F312        F  0.19775621  0.78802602  0.93377052    -0.19820
F313        F  0.19633613  0.81941417  0.87764287    -0.20140
F314        F  0.24223680  0.89048206  0.91922181    -0.22820
C315        C  0.06172171  0.90178204  0.10327943    -0.05650
C316        C  0.02450850  0.87359284  0.07397081     0.00270
C317        C  0.98485156  0.80788708  0.07395354    -0.08300
C318        C  0.97936738  0.77297071  0.10506098    -0.05670
C319        C  0.01341651  0.80135706  0.13582642     0.00260
C320        C  0.05762755  0.86706300  0.13428337    -0.08210
C321        C  0.09722922  0.90357168  0.16553047     0.62170
H322        H  0.09143366  0.95232902  0.10269430     0.12870
H323        H  0.94517806  0.72360923  0.10617443     0.12880
C324        C  0.94819250  0.77481975  0.04124140     0.62410
F325        F  0.14915103  0.95799186  0.15369694    -0.22760
F326        F  0.11628894  0.86939368  0.18474709    -0.20090
F327        F  0.56513075  0.92017036  0.18784804    -0.19770
F328        F  0.98583530  0.79525318  0.01129194    -0.19820
F329        F  0.40226239  0.78749001  0.03649490    -0.20140
F330        F  0.42190562  0.71042491  0.04442581    -0.22820
C331        C  0.05087500  0.66066933  0.08551169    -0.05650
C332        C  0.99926640  0.60184322  0.07896198     0.00270
C333        C  0.44754485  0.57894449  0.10166953    -0.08300
C334        C  0.44974134  0.61616002  0.13004935    -0.05670
C335        C  0.00176586  0.67449024  0.13732868     0.00260
C336        C  0.05400960  0.69672505  0.11482987    -0.08210
C337        C  0.11483600  0.75601324  0.12049606     0.62170
H338        H  0.09049535  0.67780308  0.06816864     0.12870
H339        H  0.41050704  0.59891276  0.14737475     0.12880
C340        C  0.39109117  0.51445864  0.09725005     0.62410
F341        F  0.16045550  0.74210563  0.11998202    -0.22760
F342        F  0.11801808  0.78338347  0.15253543    -0.20090
F343        F  0.12571534  0.79873284  0.09316460    -0.19770
F344        F  0.40693486  0.46917322  0.09785123    -0.19820
F345        F  0.36370850  0.51266884  0.06522560    -0.20140
F346        F  0.34861790  0.49962281  0.12433407    -0.22820
C347        C  0.43985968  0.59406389  0.25163425    -0.05650
C348        C  0.99382394  0.59792974  0.26263638     0.00270
C349        C  0.04955917  0.64232873  0.24564469    -0.08300
C350        C  0.04799219  0.67678641  0.21603115    -0.05670
C351        C  0.99373898  0.67146641  0.20415560     0.00260
C352        C  0.43858196  0.63032350  0.22295396    -0.08210
C353        C  0.37687927  0.62081599  0.21418126     0.62170
H354        H  0.39752572  0.56132574  0.26535697     0.12870
H355        H  0.08967376  0.70846612  0.20171152     0.12880
C356        C  0.11039353  0.65286686  0.25792700     0.62410
F357        F  0.33653911  0.55809754  0.20766128    -0.22760
F358        F  0.37802768  0.65499738  0.18475551    -0.20090
F359        F  0.35552983  0.63818569  0.24304236    -0.19770
F360        F  0.11066350  0.59764306  0.25598645    -0.19820
F361        F  0.12039560  0.67340153  0.29271742    -0.20140
F362        F  0.15838359  0.69784690  0.23711346    -0.22820
C363        C  0.43494998  0.83216287  0.23506732    -0.05650
C364        C  0.47177220  0.84262042  0.26469017     0.00270
C365        C  0.01261741  0.82072907  0.26479907    -0.08300
C366        C  0.01907124  0.79380476  0.23375803    -0.05670
C367        C  0.98472667  0.78593818  0.20292491     0.00260
C368        C  0.44021422  0.80401159  0.20403308    -0.08210
C369        C  0.40167961  0.80023839  0.17226845     0.62170
H370        H  0.40457016  0.85015530  0.23547990     0.12870
H371        H  0.05438775  0.78270213  0.23278011     0.12880
C372        C  0.04983649  0.82623598  0.29745254     0.62410
F373        F  0.35021123  0.80034519  0.18325632    -0.22760
F374        F  0.38198844  0.74611624  0.15349772    -0.20090
F375        F  0.93511473  0.85158498  0.14972419    -0.19770
F376        F  0.51287016  0.80623686  0.32769032    -0.19820
F377        F  0.09606505  0.88783908  0.30135957    -0.20140
F378        F  0.07581690  0.78970343  0.29469957    -0.22820
C379        C  0.18767656  0.06079662  0.45322517    -0.05650
C380        C  0.19024773  0.50951869  0.46707047     0.00270
C381        C  0.15004078  0.44908845  0.45317137    -0.08300
C382        C  0.10932357  0.44324551  0.42628244    -0.05670
C383        C  0.10924598  0.49540573  0.41155163     0.00260
C384        C  0.15095799  0.05585584  0.42436098    -0.08210
C385        C  0.15710494  0.11534978  0.40823182     0.62170
H386        H  0.21548208  0.10581208  0.46503878     0.12870
H387        H  0.07732453  0.39701939  0.41642834     0.12880
C388        C  0.14533831  0.38861298  0.46593842     0.62410
F389        F  0.20022406  0.66865650  0.42549891    -0.22760
F390        F  0.10218358  0.61270970  0.41058259    -0.20090
F391        F  0.17540888  0.12186081  0.37282496    -0.19770
F392        F  0.08876230  0.35006090  0.48171874    -0.19820
F393        F  0.18891709  0.89733789  0.49016414    -0.20140
F394        F  0.15116641  0.85834133  0.43698093    -0.22820
C395        C  0.34338999  0.51691258  0.40326386    -0.05650
C396        C  0.35643933  0.96975003  0.40982834     0.00270
C397        C  0.34028235  0.93762024  0.44315982    -0.08300
C398        C  0.31420244  0.95654636  0.46946141    -0.05670
C399        C  0.30606477  0.50802916  0.46430010     0.00260
C400        C  0.32154049  0.53907916  0.43012141    -0.08210
C401        C  0.32358003  0.59938651  0.42055073     0.62170
H402        H  0.35597311  0.54104404  0.37742850     0.12870
H403        H  0.30239720  0.93258271  0.49521431     0.12880
C404        C  0.35364960  0.88622255  0.45170567     0.62410
F405        F  0.38022135  0.64257326  0.40621167    -0.22760
F406        F  0.31449013  0.62664066  0.44937098    -0.20090
F407        F  0.27993859  0.08744989  0.39522745    -0.19770
F408        F  0.41562002  0.40989129  0.44852748    -0.19820
F409        F  0.32293383  0.83753952  0.42831956    -0.20140
F410        F  0.33549595  0.86215071  0.48611163    -0.22820
C411        C  0.16599142  0.57455362  0.57475697    -0.05650
C412        C  0.12238646  0.01674248  0.59040252     0.00270
C413        C  0.12052432  0.96172563  0.57923713    -0.08300
C414        C  0.15760343  0.96640127  0.55012198    -0.05670
C415        C  0.20053772  0.52417055  0.53372931     0.00260
C416        C  0.20601829  0.57970315  0.54749949    -0.08210
C417        C  0.25149765  0.64579454  0.53480408     0.62170
H418        H  0.16907759  0.61713099  0.58390914     0.12900
H419        H  0.15235681  0.92401276  0.53969744     0.12880
C420        C  0.07965531  0.89816149  0.59733235     0.62410
F421        F  0.28338888  0.68141995  0.56367716    -0.22760
F422        F  0.22106990  0.17220760  0.51900129    -0.20090
F423        F  0.29290101  0.64817020  0.51086049    -0.19770
F424        F  0.01928434  0.87963059  0.59277787    -0.19820
F425        F  0.09248326  0.40180800  0.63336105    -0.20140
F426        F  0.08843622  0.85223434  0.58345009    -0.22820
C427        C  0.29570011  0.98928984  0.55687834    -0.05650
C428        C  0.32291388  0.53651811  0.53006981     0.00270
C429        C  0.38591297  0.58346691  0.53325119    -0.08300
C430        C  0.41736638  0.58186651  0.56360576    -0.05670
C431        C  0.38989930  0.03378548  0.58945765     0.00260
C432        C  0.32767526  0.98749310  0.58673377    -0.08210
C433        C  0.29494446  0.93599430  0.61504215     0.62170
H434        H  0.25021753  0.95053986  0.55302237     0.12870
H435        H  0.46527054  0.61616208  0.56635760     0.12880
C436        C  0.42219948  0.63349241  0.50459138     0.62410
F437        F  0.23257599  0.40361917  0.61069226    -0.22760
F438        F  0.30712810  0.46173915  0.64862921    -0.20090
F439        F  0.31409278  0.89350930  0.61303050    -0.19770
F440        F  0.39605568  0.66858892  0.49760570    -0.19820
F441        F  0.42548725  0.10598611  0.47369808    -0.20140
F442        F  0.48126503  0.17483289  0.51487065    -0.22820
C443        C  0.36822372  0.93566178  0.76728795    -0.05650
C444        C  0.38128161  0.90524977  0.74062529     0.00270
C445        C  0.35687443  0.83978054  0.74402510    -0.08300
C446        C  0.32292309  0.80813015  0.77500068    -0.05670
C447        C  0.30891025  0.83813458  0.80167523     0.00260
C448        C  0.33340528  0.90403655  0.79799380    -0.08210
C449        C  0.32742010  0.94324669  0.82669506     0.62170
H450        H  0.38823572  0.98587697  0.76470827     0.12870
H451        H  0.30956051  0.75979380  0.77933083     0.12880
C452        C  0.36602127  0.80285373  0.71537469     0.62410
F453        F  0.34559506  0.00313519  0.81422692    -0.22760
F454        F  0.36373508  0.94934197  0.85526717    -0.20090
F455        F  0.26804596  0.91639967  0.83818974    -0.19770
F456        F  0.42627492  0.81917101  0.71410884    -0.19820
F457        F  0.34958236  0.81525278  0.68251056    -0.20140
F458        F  0.33075907  0.73878835  0.72193529    -0.22820
C459        C  0.12149714  0.69240242  0.74856075    -0.05650
C460        C  0.12554677  0.64099851  0.73796376     0.00270
C461        C  0.16719197  0.62859579  0.75553774    -0.08300
C462        C  0.19782676  0.66395415  0.78545258    -0.05670
C463        C  0.19261852  0.71440565  0.79696258     0.00260
C464        C  0.15462357  0.72989680  0.77732395    -0.08210
C465        C  0.14434325  0.78293390  0.78541504     0.62170
H466        H  0.09063186  0.70278207  0.73472425     0.12870
H467        H  0.22593178  0.65155777  0.80047279     0.12880
C468        C  0.18014973  0.57879117  0.74315450     0.62410
F469        F  0.15810193  0.82110087  0.75530536    -0.22760
F470        F  0.17944886  0.81942903  0.81258459    -0.20090
F471        F  0.08390425  0.75854339  0.79471356    -0.19770
F472        F  0.19238016  0.58581594  0.70678969    -0.19820
F473        F  0.13068973  0.51967733  0.75076523    -0.20140
F474        F  0.23022020  0.58344809  0.75993657    -0.22820
In475      In  0.50358719  0.02346371  0.66292375     1.36870
C476        C  0.92948175  0.53048155  0.61684917     0.77710
O477        O  0.57752178  0.06633168  0.62194285    -0.60740
O478        O  0.54179088  0.47079824  0.63598118    -0.51650
C479        C  0.58334061  0.10023344  0.70992663     0.70370
O480        O  0.55275062  0.11593354  0.69067739    -0.46510
C481        C  0.92318038  0.44538087  0.71118691     0.75080
O482        O  0.96969041  0.07811214  0.63294584    -0.58370
O483        O  0.95300159  0.42981600  0.69140340    -0.48460
O484        O  0.92757555  0.48010259  0.62457809    -0.54800
C485        C  0.57950127  0.51743062  0.61699014     0.85260
O486        O  0.57297022  0.04591316  0.70433867    -0.56690
O487        O  0.93393584  0.50022533  0.70516476    -0.59980
C488        C  0.78619491  0.02829017  0.49688534     0.00690
C489        C  0.72931325  0.02164488  0.49908876     0.00690
In490      In  0.47748131  0.96692026  0.33821267     1.36870
C491        C  0.56253584  0.98425766  0.38458954     0.77710
O492        O  0.94127411  0.01466816  0.36989257    -0.60740
O493        O  0.89364190  0.41533308  0.37406442    -0.51650
C494        C  0.48849516  0.05175018  0.29013658     0.70370
O495        O  0.53092239  0.06082774  0.31071202    -0.46510
C496        C  0.97232005  0.38380443  0.29273234     0.75080
O497        O  0.56948426  0.02469423  0.36136804    -0.58370
O498        O  0.92476647  0.37897014  0.30603288    -0.48460
O499        O  0.51196775  0.43350858  0.38337951    -0.54800
C500        C  0.89769661  0.46566644  0.38383990     0.85260
O501        O  0.94024349  0.99910101  0.29458786    -0.56690
O502        O  0.52121202  0.42944655  0.30362970    -0.59980
C503        C  0.49895536  0.26214686  0.16961993     0.00690
C504        C  0.49826302  0.20627488  0.17020640     0.00690
In505      In  0.51325550  0.99302781  0.00165702     1.36870
C506        C  0.93463261  0.41448262  0.95488728     0.77710
O507        O  0.53296924  0.06840329  0.96239626    -0.60740
O508        O  0.59993058  0.04389038  0.96845297    -0.51650
C509        C  0.50381240  0.06383823  0.05039719     0.70370
O510        O  0.95907130  0.02420258  0.03260583    -0.46510
C511        C  0.52183749  0.41496480  0.04643553     0.75080
O512        O  0.92208450  0.44532691  0.97611575    -0.58370
O513        O  0.56837731  0.45981738  0.03102705    -0.48460
O514        O  0.98674319  0.42219538  0.95905150    -0.54800
C515        C  0.58355752  0.07750628  0.95203242     0.85260
O516        O  0.55359616  0.06818181  0.04233295    -0.56690
O517        O  0.97218692  0.41020521  0.03827906    -0.59980
C518        C  0.72203219  0.24245215  0.83199833     0.00690
C519        C  0.77477975  0.30028905  0.83472957     0.00690
C520        C  0.67622075  0.12974657  0.91320309    -0.05650
C521        C  0.61965429  0.12229304  0.92230181     0.00270
C522        C  0.59804744  0.15513633  0.90165121    -0.08300
C523        C  0.63274935  0.19138801  0.87204094    -0.05670
C524        C  0.69020207  0.20091383  0.86381931     0.00260
C525        C  0.71178684  0.16783634  0.88411894    -0.08210
C526        C  0.76950226  0.16741879  0.87594832     0.62170
H527        H  0.69258728  0.10433145  0.92857260     0.12870
H528        H  0.61569997  0.21439817  0.85519901     0.12880
C529        C  0.53932765  0.15351916  0.91041496     0.62410
F530        F  0.80832118  0.19158107  0.90455039    -0.22760
F531        F  0.80006691  0.20147112  0.84564196    -0.20090
F532        F  0.75482414  0.10622276  0.87114418    -0.19770
F533        F  0.54122789  0.17333703  0.94494271    -0.19820
F534        F  0.49003677  0.09336014  0.90676640    -0.20140
F535        F  0.53051175  0.19282003  0.88801367    -0.22820
C536        C  0.86886079  0.33048062  0.86752646    -0.05650
C537        C  0.80980226  0.32089583  0.86905916     0.00270
C538        C  0.79068576  0.33608021  0.90125052    -0.08300
C539        C  0.83166319  0.36064122  0.92960292    -0.05670
C540        C  0.89200248  0.37517095  0.92659125     0.00260
C541        C  0.91058602  0.35773278  0.89534738    -0.08210
C542        C  0.97448853  0.36960178  0.89029912     0.62170
H543        H  0.88314527  0.31844992  0.84325406     0.12870
H544        H  0.81719483  0.37266356  0.95389386     0.12880
C545        C  0.73090795  0.33301507  0.90756564     0.62410
F546        F  0.98175759  0.34783544  0.85799195    -0.22760
F547        F  0.98660403  0.33896545  0.91713719    -0.20090
F548        F  0.01643380  0.43332404  0.89099302    -0.19770
F549        F  0.69774706  0.28803509  0.93375830    -0.19820
F550        F  0.69633501  0.31942015  0.87762877    -0.20140
F551        F  0.74223124  0.39049039  0.91920695    -0.22820
C552        C  0.56170501  0.40177411  0.10328054    -0.05650
C553        C  0.52449016  0.37358761  0.07397231     0.00270
C554        C  0.48483728  0.30788157  0.07395198    -0.08300
C555        C  0.47935817  0.27296150  0.10505682    -0.05670
C556        C  0.51340935  0.30134461  0.13582233     0.00260
C557        C  0.55761925  0.36705096  0.13428067    -0.08210
C558        C  0.59723141  0.40355767  0.16552467     0.62170
H559        H  0.59141521  0.45232141  0.10269776     0.12870
H560        H  0.44516994  0.22359965  0.10616866     0.12880
C561        C  0.44817737  0.27481824  0.04123932     0.62410
F562        F  0.64916343  0.45796230  0.15368534    -0.22760
F563        F  0.61627523  0.36936975  0.18474512    -0.20090
F564        F  0.06515067  0.42018182  0.18784007    -0.19770
F565        F  0.48581936  0.29525609  0.01128948    -0.19820
F566        F  0.90224641  0.28748838  0.03649590    -0.20140
F567        F  0.92189096  0.21042305  0.04442087    -0.22820
C568        C  0.55087328  0.16066129  0.08550719    -0.05650
C569        C  0.49926635  0.10183634  0.07895323     0.00270
C570        C  0.94753870  0.07893495  0.10165623    -0.08300
C571        C  0.94972869  0.11614620  0.13003663    -0.05670
C572        C  0.50175214  0.17447438  0.13732063     0.00260
C573        C  0.55400139  0.19671190  0.11482638    -0.08210
C574        C  0.61482734  0.25599701  0.12049939     0.62170
H575        H  0.59049770  0.17779714  0.06816738     0.12870
H576        H  0.91049049  0.09889678  0.14735912     0.12880
C577        C  0.89108515  0.01445079  0.09723129     0.62410
F578        F  0.66044664  0.24208916  0.11998233    -0.22760
F579        F  0.61800493  0.28335371  0.15254304    -0.20090
F580        F  0.62571114  0.29872745  0.09317359    -0.19770
F581        F  0.90692666  0.96916370  0.09783433    -0.19820
F582        F  0.86371214  0.01266669  0.06520400    -0.20140
F583        F  0.84860442  0.99961253  0.12431107    -0.22820
C584        C  0.93979777  0.09403596  0.25162429    -0.05650
C585        C  0.49375200  0.09788472  0.26263108     0.00270
C586        C  0.54949421  0.14226766  0.24563991    -0.08300
C587        C  0.54794383  0.17673150  0.21602466    -0.05670
C588        C  0.49370120  0.17143291  0.20414643     0.00260
C589        C  0.93853685  0.13030080  0.22294132    -0.08210
C590        C  0.87684266  0.12080902  0.21416109     0.62170
H591        H  0.89745859  0.06130722  0.26534530     0.12870
H592        H  0.58963051  0.20840073  0.20170631     0.12880
C593        C  0.61031864  0.15278157  0.25792454     0.62410
F594        F  0.83649225  0.05809193  0.20764354    -0.22760
F595        F  0.87800632  0.15498927  0.18473069    -0.20090
F596        F  0.85549549  0.13819318  0.24301675    -0.19770
F597        F  0.61056232  0.09754291  0.25599095    -0.19820
F598        F  0.62032898  0.17332651  0.29271286    -0.20140
F599        F  0.65831723  0.19774289  0.23710831    -0.22820
C600        C  0.93499618  0.33219472  0.23506635    -0.05650
C601        C  0.97182171  0.34264266  0.26468623     0.00270
C602        C  0.51264473  0.32072401  0.26479381    -0.08300
C603        C  0.51907732  0.29378441  0.23375326    -0.05670
C604        C  0.48473038  0.28592740  0.20292240     0.00260
C605        C  0.94023405  0.30402220  0.20403425    -0.08210
C606        C  0.90169138  0.30025333  0.17227533     0.62170
H607        H  0.90463201  0.35020644  0.23547970     0.12870
H608        H  0.55438155  0.28266423  0.23277322     0.12880
C609        C  0.54986194  0.32621773  0.29744572     0.62410
F610        F  0.85021680  0.30033832  0.18327420    -0.22760
F611        F  0.88200858  0.24614379  0.15349376    -0.20090
F612        F  0.43511521  0.35161344  0.14973793    -0.19770
F613        F  0.01289806  0.30622759  0.32768439    -0.19820
F614        F  0.59610304  0.38781520  0.30135289    -0.20140
F615        F  0.57582526  0.28966952  0.29469061    -0.22820
C616        C  0.68777705  0.56082630  0.45322147    -0.05650
C617        C  0.69014649  0.00948971  0.46707584     0.00270
C618        C  0.64992847  0.94905618  0.45318428    -0.08300
C619        C  0.60920453  0.94321019  0.42629901    -0.05670
C620        C  0.60913009  0.99536982  0.41156424     0.00260
C621        C  0.65106536  0.55588914  0.42435421    -0.08210
C622        C  0.65720820  0.61538351  0.40822892     0.62170
H623        H  0.71557504  0.60583904  0.46503961     0.12870
H624        H  0.57719883  0.89698196  0.41645024     0.12880
C625        C  0.64522069  0.88858062  0.46595641     0.62410
F626        F  0.70013011  0.16862515  0.42549560    -0.22760
F627        F  0.60208501  0.11268505  0.41058851    -0.20090
F628        F  0.67552153  0.62190605  0.37282333    -0.19770
F629        F  0.58865118  0.85004367  0.48174773    -0.19820
F630        F  0.68902403  0.39736743  0.49015334    -0.20140
F631        F  0.65130665  0.35839173  0.43696115    -0.22820
C632        C  0.84325891  0.01684762  0.40325571    -0.05650
C633        C  0.85656785  0.46981266  0.40983461     0.00270
C634        C  0.84040366  0.43767502  0.44316361    -0.08300
C635        C  0.81431425  0.45659205  0.46946409    -0.05670
C636        C  0.80595606  0.00798527  0.46429569     0.00260
C637        C  0.82142070  0.03902445  0.43011391    -0.08210
C638        C  0.82346111  0.09933104  0.42053964     0.62170
H639        H  0.85583482  0.04097185  0.37741820     0.12870
H640        H  0.80250197  0.43262094  0.49521478     0.12880
C641        C  0.85377259  0.38627806  0.45170824     0.62410
F642        F  0.88009806  0.14251055  0.40619239    -0.22760
F643        F  0.81438496  0.12659685  0.44935909    -0.20090
F644        F  0.78006649  0.58751103  0.39523324    -0.19770
F645        F  0.91549661  0.90983359  0.44852337    -0.19820
F646        F  0.82306046  0.33759741  0.42832026    -0.20140
F647        F  0.83561653  0.36220215  0.48611328    -0.22820
C648        C  0.66592257  0.07456137  0.57475265    -0.05650
C649        C  0.62245393  0.51672921  0.59040084     0.00270
C650        C  0.62059254  0.46171679  0.57922725    -0.08300
C651        C  0.65767720  0.46640380  0.55011211    -0.05670
C652        C  0.70046044  0.02416172  0.53373193     0.00260
C653        C  0.70594592  0.07970028  0.54749585    -0.08210
C654        C  0.75142859  0.14578708  0.53479488     0.62170
H655        H  0.66901078  0.11714245  0.58389959     0.12900
H656        H  0.65243341  0.42401966  0.53968235     0.12880
C657        C  0.57971821  0.39814584  0.59731377     0.62410
F658        F  0.78332424  0.18141873  0.56366513    -0.22760
F659        F  0.72113492  0.67221378  0.51901348    -0.20090
F660        F  0.79282805  0.14815146  0.51085221    -0.19770
F661        F  0.51934901  0.37962233  0.59275969    -0.19820
F662        F  0.59242429  0.90184062  0.63337941    -0.20140
F663        F  0.58849582  0.35222207  0.58342275    -0.22820
C664        C  0.79577791  0.48929983  0.55687840    -0.05650
C665        C  0.82283043  0.03649628  0.53006284     0.00270
C666        C  0.88583133  0.08344456  0.53323692    -0.08300
C667        C  0.91729082  0.08185923  0.56359268    -0.05670
C668        C  0.88997084  0.53377915  0.58946223     0.00260
C669        C  0.82774755  0.48748843  0.58673260    -0.08210
C670        C  0.79501217  0.43597578  0.61503305     0.62170
H671        H  0.75029641  0.45055142  0.55301691     0.12870
H672        H  0.96519595  0.11615528  0.56633951     0.12880
C673        C  0.92211283  0.13345338  0.50456834     0.62410
F674        F  0.73250747  0.90363577  0.61070488    -0.22760
F675        F  0.80706637  0.96177513  0.64863380    -0.20090
F676        F  0.81416115  0.39349220  0.61301289    -0.19770
F677        F  0.89597284  0.16855191  0.49757728    -0.19820
F678        F  0.92558724  0.60604492  0.47371636    -0.20140
F679        F  0.98134685  0.67487170  0.51490169    -0.22820
C680        C  0.86827231  0.43565687  0.76728470    -0.05650
C681        C  0.88132155  0.40523543  0.74062358     0.00270
C682        C  0.85689297  0.33976260  0.74402218    -0.08300
C683        C  0.82292840  0.30811670  0.77499509    -0.05670
C684        C  0.80892498  0.33813116  0.80166831     0.00260
C685        C  0.83344081  0.40403676  0.79798762    -0.08210
C686        C  0.82746801  0.44325613  0.82668794     0.62170
H687        H  0.88830138  0.48587469  0.76470657     0.12870
H688        H  0.80954827  0.25977532  0.77932445     0.12880
C689        C  0.86603097  0.30282786  0.71537305     0.62410
F690        F  0.84564496  0.50314300  0.81421580    -0.22760
F691        F  0.86378977  0.44935356  0.85525686    -0.20090
F692        F  0.76809792  0.41641760  0.83818882    -0.19770
F693        F  0.92627908  0.31912523  0.71411222    -0.19820
F694        F  0.84960735  0.31523910  0.68250726    -0.20140
F695        F  0.83075099  0.23876313  0.72193147    -0.22820
C696        C  0.62147463  0.19242879  0.74855926    -0.05650
C697        C  0.62550770  0.14101654  0.73795956     0.00270
C698        C  0.66715048  0.12860317  0.75552809    -0.08300
C699        C  0.69779962  0.16396071  0.78544045    -0.05670
C700        C  0.69260918  0.21442172  0.79695282     0.00260
C701        C  0.65461758  0.22992366  0.77731870    -0.08210
C702        C  0.64435787  0.28297398  0.78541096     0.62170
H703        H  0.59061150  0.20281659  0.73472706     0.12870
H704        H  0.72590118  0.15155552  0.80045758     0.12880
C705        C  0.68008988  0.07878682  0.74314231     0.62410
F706        F  0.65810157  0.32112921  0.75529729    -0.22760
F707        F  0.67949009  0.31947787  0.81257002    -0.20090
F708        F  0.58392761  0.25860002  0.79472498    -0.19770
F709        F  0.69231353  0.08580800  0.70677677    -0.19820
F710        F  0.63062209  0.01967905  0.75075534    -0.20140
F711        F  0.73015743  0.08342983  0.75992039    -0.22820
In712      In  0.50364773  0.52343456  0.66292521     1.36870
C713        C  0.92941462  0.03049862  0.61684625     0.77710
O714        O  0.57758198  0.56630675  0.62194502    -0.60740
O715        O  0.54172346  0.97082271  0.63598143    -0.51650
C716        C  0.58339101  0.60021056  0.70992885     0.70370
O717        O  0.55280447  0.61590648  0.69067373    -0.46510
C718        C  0.92313087  0.94540176  0.71118705     0.75080
O719        O  0.96975802  0.57809058  0.63295134    -0.58370
O720        O  0.95295189  0.92984381  0.69139882    -0.48460
O721        O  0.92751196  0.98012300  0.62457926    -0.54800
C722        C  0.57943657  0.01745234  0.61699002     0.85260
O723        O  0.57302506  0.54589028  0.70434558    -0.56690
O724        O  0.93387909  0.00024474  0.70516838    -0.59980
C725        C  0.78628908  0.52832137  0.49688896     0.00690
C726        C  0.72940374  0.52166807  0.49908757     0.00690
In727      In  0.47758928  0.46696855  0.33820940     1.36870
C728        C  0.56265162  0.48429601  0.38457755     0.77710
O729        O  0.94140488  0.51472703  0.36990018    -0.60740
O730        O  0.89352728  0.91527562  0.37406357    -0.51650
C731        C  0.48858317  0.55179649  0.29013788     0.70370
O732        O  0.53102073  0.56087494  0.31070478    -0.46510
C733        C  0.97224670  0.88376983  0.29273692     0.75080
O734        O  0.56960454  0.52473030  0.36135307    -0.58370
O735        O  0.92468266  0.87892810  0.30602627    -0.48460
O736        O  0.51185818  0.93346399  0.38338587    -0.54800
C737        C  0.89757107  0.96560620  0.38383450     0.85260
O738        O  0.94033457  0.49914692  0.29459449    -0.56690
O739        O  0.52112934  0.92941063  0.30364555    -0.59980
C740        C  0.49896385  0.76216253  0.16962478     0.00690
C741        C  0.49828298  0.70629654  0.17021375     0.00690
In742      In  0.51323815  0.49302728  0.00166253     1.36870
C743        C  0.93464577  0.91447960  0.95488606     0.77710
O744        O  0.53295826  0.56840442  0.96240170    -0.60740
O745        O  0.59991678  0.54388812  0.96846241    -0.51650
C746        C  0.50380501  0.56384183  0.05040492     0.70370
O747        O  0.95906022  0.52420587  0.03261580    -0.46510
C748        C  0.52185711  0.91496813  0.04643180     0.75080
O749        O  0.92209880  0.94532251  0.97611614    -0.58370
O750        O  0.56839726  0.95982334  0.03102498    -0.48460
O751        O  0.98675832  0.92219531  0.95904649    -0.54800
C752        C  0.58354735  0.57750586  0.95204054     0.85260
O753        O  0.55358646  0.56818324  0.04233713    -0.56690
O754        O  0.97220593  0.91020463  0.03827260    -0.59980
C755        C  0.72203514  0.74244378  0.83200757     0.00690
C756        C  0.77477518  0.80028716  0.83473729     0.00690
C757        C  0.67621627  0.62974479  0.91321585    -0.05650
C758        C  0.61964905  0.62229259  0.92231119     0.00270
C759        C  0.59804617  0.65513707  0.90165846    -0.08300
C760        C  0.63275082  0.69138554  0.87204829    -0.05670
C761        C  0.69020392  0.70090978  0.86382961     0.00260
C762        C  0.71178667  0.66783409  0.88413269    -0.08210
C763        C  0.76950466  0.66741873  0.87596724     0.62170
H764        H  0.69258039  0.60432966  0.92858755     0.12870
H765        H  0.61570309  0.71439450  0.85520417     0.12880
C766        C  0.53932806  0.65352488  0.91041990     0.62410
F767        F  0.80831703  0.69158001  0.90457224    -0.22760
F768        F  0.80007572  0.70147379  0.84566295    -0.20090
F769        F  0.75482921  0.60622353  0.87116321    -0.19770
F770        F  0.54122687  0.67334313  0.94494741    -0.19820
F771        F  0.49003471  0.59336765  0.90677037    -0.20140
F772        F  0.53051783  0.69282865  0.88801765    -0.22820
C773        C  0.86886347  0.83048424  0.86752608    -0.05650
C774        C  0.80980387  0.82089574  0.86906412     0.00270
C775        C  0.79069061  0.83607505  0.90125833    -0.08300
C776        C  0.83167207  0.86063446  0.92960871    -0.05670
C777        C  0.89201182  0.87516708  0.92659222     0.00260
C778        C  0.91059206  0.85773318  0.89534547    -0.08210
C779        C  0.97449387  0.86960226  0.89029299     0.62170
H780        H  0.88314516  0.81845708  0.84325126     0.12870
H781        H  0.81720653  0.87265380  0.95390187     0.12880
C782        C  0.73091296  0.83300792  0.90757795     0.62410
F783        F  0.98175814  0.84783686  0.85798423    -0.22760
F784        F  0.98661295  0.83896485  0.91712867    -0.20090
F785        F  0.01643953  0.93332439  0.89098688    -0.19770
F786        F  0.69775609  0.78802603  0.93377050    -0.19820
F787        F  0.69633607  0.81941412  0.87764283    -0.20140
F788        F  0.74223669  0.89048206  0.91922176    -0.22820
C789        C  0.56172188  0.90178215  0.10327932    -0.05650
C790        C  0.52450867  0.87359294  0.07397070     0.00270
C791        C  0.48485167  0.80788718  0.07395346    -0.08300
C792        C  0.47936743  0.77297085  0.10506092    -0.05670
C793        C  0.51341657  0.80135721  0.13582636     0.00260
C794        C  0.55762764  0.86706314  0.13428329    -0.08210
C795        C  0.59722926  0.90357183  0.16553041     0.62170
H796        H  0.59143387  0.95232912  0.10269416     0.12870
H797        H  0.44517807  0.72360938  0.10617439     0.12880
C798        C  0.44819260  0.77481984  0.04124132     0.62410
F799        F  0.64915102  0.95799210  0.15369690    -0.22760
F800        F  0.61628908  0.86939389  0.18474700    -0.20090
F801        F  0.06513079  0.92017034  0.18784809    -0.19770
F802        F  0.48583541  0.79525321  0.01129187    -0.19820
F803        F  0.90226225  0.78748989  0.03649500    -0.20140
F804        F  0.92190556  0.71042483  0.04442586    -0.22820
C805        C  0.55087501  0.66066939  0.08551169    -0.05650
C806        C  0.49926640  0.60184330  0.07896197     0.00270
C807        C  0.94754489  0.57894437  0.10166957    -0.08300
C808        C  0.94974138  0.61615988  0.13004941    -0.05670
C809        C  0.50176584  0.67449036  0.13732864     0.00260
C810        C  0.55400960  0.69672512  0.11482986    -0.08210
C811        C  0.61483602  0.75601329  0.12049606     0.62170
H812        H  0.59049539  0.67780309  0.06816866     0.12870
H813        H  0.91050711  0.59891257  0.14737484     0.12880
C814        C  0.89109123  0.51445849  0.09725011     0.62410
F815        F  0.66045549  0.74210562  0.11998206    -0.22760
F816        F  0.61801808  0.78338353  0.15253543    -0.20090
F817        F  0.62571542  0.79873289  0.09316459    -0.19770
F818        F  0.90693499  0.46917311  0.09785125    -0.19820
F819        F  0.86370850  0.51266866  0.06522568    -0.20140
F820        F  0.84861801  0.49962261  0.12433416    -0.22820
C821        C  0.93985986  0.59406389  0.25163435    -0.05650
C822        C  0.49382373  0.59792969  0.26263629     0.00270
C823        C  0.54955900  0.64232870  0.24564464    -0.08300
C824        C  0.54799208  0.67678645  0.21603112    -0.05670
C825        C  0.49373890  0.67146651  0.20415555     0.00260
C826        C  0.93858208  0.63032343  0.22295403    -0.08210
C827        C  0.87687936  0.62081585  0.21418135     0.62170
H828        H  0.89752593  0.56132576  0.26535710     0.12870
H829        H  0.58967367  0.70846617  0.20171152     0.12880
C830        C  0.61039332  0.65286677  0.25792696     0.62410
F831        F  0.83653921  0.55809737  0.20766142    -0.22760
F832        F  0.87802770  0.65499716  0.18475559    -0.20090
F833        F  0.85552994  0.63818559  0.24304244    -0.19770
F834        F  0.61066325  0.59764295  0.25598639    -0.19820
F835        F  0.62039537  0.67340137  0.29271739    -0.20140
F836        F  0.65838342  0.69784682  0.23711345    -0.22820
C837        C  0.93494992  0.83216275  0.23506733    -0.05650
C838        C  0.97177214  0.84262034  0.26469018     0.00270
C839        C  0.51261749  0.82072918  0.26479903    -0.08300
C840        C  0.51907133  0.79380491  0.23375797    -0.05670
C841        C  0.48472675  0.78593836  0.20292486     0.00260
C842        C  0.94021414  0.80401140  0.20403312    -0.08210
C843        C  0.90167947  0.80023810  0.17226849     0.62170
H844        H  0.90457011  0.85015519  0.23547989     0.12870
H845        H  0.55438784  0.78270229  0.23278002     0.12880
C846        C  0.54983658  0.82623607  0.29745248     0.62410
F847        F  0.85021102  0.80034475  0.18325638    -0.22760
F848        F  0.88198840  0.74611598  0.15349776    -0.20090
F849        F  0.43511496  0.85158524  0.14972414    -0.19770
F850        F  0.01287005  0.80623683  0.32769037    -0.19820
F851        F  0.59606512  0.88783917  0.30135953    -0.20140
F852        F  0.57581702  0.78970355  0.29469948    -0.22820
C853        C  0.68767659  0.06079662  0.45322522    -0.05650
C854        C  0.69024760  0.50951867  0.46707025     0.00270
C855        C  0.65004061  0.44908839  0.45317120    -0.08300
C856        C  0.60932335  0.44324540  0.42628228    -0.05670
C857        C  0.60924581  0.49540559  0.41155139     0.00260
C858        C  0.65095800  0.05585585  0.42436102    -0.08210
C859        C  0.65710494  0.11534980  0.40823189     0.62170
H860        H  0.71548210  0.10581208  0.46503883     0.12870
H861        H  0.57732426  0.39701925  0.41642824     0.12880
C862        C  0.64533817  0.38861295  0.46593829     0.62410
F863        F  0.70022432  0.66865645  0.42549834    -0.22760
F864        F  0.60218378  0.61270981  0.41058213    -0.20090
F865        F  0.67540888  0.12186086  0.37282502    -0.19770
F866        F  0.58876222  0.35006094  0.48171869    -0.19820
F867        F  0.68891712  0.89733788  0.49016416    -0.20140
F868        F  0.65116647  0.85834135  0.43698093    -0.22820
C869        C  0.84339009  0.51691267  0.40326380    -0.05650
C870        C  0.85643933  0.96975001  0.40982834     0.00270
C871        C  0.84028237  0.93762022  0.44315982    -0.08300
C872        C  0.81420247  0.95654634  0.46946142    -0.05670
C873        C  0.80606476  0.50802933  0.46430001     0.00260
C874        C  0.82154051  0.53907927  0.43012131    -0.08210
C875        C  0.82358004  0.59938659  0.42055057     0.62170
H876        H  0.85597324  0.54104409  0.37742844     0.12870
H877        H  0.80239724  0.93258269  0.49521432     0.12880
C878        C  0.85364962  0.88622254  0.45170567     0.62410
F879        F  0.88022136  0.64257333  0.40621150    -0.22760
F880        F  0.81449012  0.62664079  0.44937079    -0.20090
F881        F  0.77993859  0.08744988  0.39522748    -0.19770
F882        F  0.91562027  0.40989168  0.44852763    -0.19820
F883        F  0.82293384  0.83753951  0.42831956    -0.20140
F884        F  0.83549599  0.86215070  0.48611163    -0.22820
C885        C  0.66599108  0.57455344  0.57475681    -0.05650
C886        C  0.62238647  0.01674248  0.59040252     0.00270
C887        C  0.62052433  0.96172562  0.57923714    -0.08300
C888        C  0.65760345  0.96640126  0.55012200    -0.05670
C889        C  0.70053746  0.52417051  0.53372911     0.00260
C890        C  0.70601790  0.57970305  0.54749928    -0.08210
C891        C  0.75149705  0.64579446  0.53480381     0.62170
H892        H  0.66907717  0.61713076  0.58390899     0.12900
H893        H  0.65235683  0.92401275  0.53969746     0.12880
C894        C  0.57965529  0.89816148  0.59733235     0.62410
F895        F  0.78338826  0.68142004  0.56367685    -0.22760
F896        F  0.72107002  0.17220764  0.51900134    -0.20090
F897        F  0.79290047  0.64817025  0.51086021    -0.19770
F898        F  0.51928433  0.87963061  0.59277786    -0.19820
F899        F  0.59248340  0.40180781  0.63336089    -0.20140
F900        F  0.58843618  0.85223432  0.58345009    -0.22820
C901        C  0.79570014  0.98928982  0.55687836    -0.05650
C902        C  0.82291376  0.53651840  0.53006970     0.00270
C903        C  0.88591282  0.58346731  0.53325110    -0.08300
C904        C  0.91736627  0.58186693  0.56360565    -0.05670
C905        C  0.88989933  0.03378546  0.58945768     0.00260
C906        C  0.82767529  0.98749308  0.58673380    -0.08210
C907        C  0.79494448  0.93599430  0.61504218     0.62170
H908        H  0.75021755  0.95053985  0.55302240     0.12870
H909        H  0.96527041  0.61616256  0.56635750     0.12880
C910        C  0.92219925  0.63349291  0.50459133     0.62410
F911        F  0.73257599  0.40361951  0.61069218    -0.22760
F912        F  0.80712813  0.46173954  0.64862910    -0.20090
F913        F  0.81409278  0.89350929  0.61303055    -0.19770
F914        F  0.89605533  0.66858934  0.49760572    -0.19820
F915        F  0.92548730  0.10598602  0.47369809    -0.20140
F916        F  0.98126508  0.17483282  0.51487065    -0.22820
C917        C  0.86822369  0.93566171  0.76728796    -0.05650
C918        C  0.88128163  0.90524971  0.74062531     0.00270
C919        C  0.85687449  0.83978049  0.74402515    -0.08300
C920        C  0.82292315  0.80813011  0.77500073    -0.05670
C921        C  0.80891027  0.83813453  0.80167526     0.00260
C922        C  0.83340525  0.90403649  0.79799382    -0.08210
C923        C  0.82742002  0.94324663  0.82669505     0.62170
H924        H  0.88823565  0.98587689  0.76470827     0.12870
H925        H  0.80956059  0.75979376  0.77933089     0.12880
C926        C  0.86602139  0.80285369  0.71537476     0.62410
F927        F  0.84559499  0.00313512  0.81422690    -0.22760
F928        F  0.86373496  0.94934191  0.85526719    -0.20090
F929        F  0.76804586  0.91639960  0.83818969    -0.19770
F930        F  0.92627506  0.81917102  0.71410893    -0.19820
F931        F  0.84958247  0.81525268  0.68251061    -0.20140
F932        F  0.83075925  0.73878830  0.72193537    -0.22820
C933        C  0.62149716  0.69240215  0.74856079    -0.05650
C934        C  0.62554683  0.64099825  0.73796383     0.00270
C935        C  0.66719207  0.62859560  0.75553782    -0.08300
C936        C  0.69782687  0.66395404  0.78545264    -0.05670
C937        C  0.69261859  0.71440552  0.79696261     0.00260
C938        C  0.65462360  0.72989660  0.77732396    -0.08210
C939        C  0.64434323  0.78293368  0.78541502     0.62170
H940        H  0.59063186  0.70278175  0.73472428     0.12870
H941        H  0.72593192  0.65155771  0.80047286     0.12880
C942        C  0.68014984  0.57879097  0.74315462     0.62410
F943        F  0.65810184  0.82110057  0.75530531    -0.22760
F944        F  0.67944886  0.81942890  0.81258454    -0.20090
F945        F  0.58390423  0.75854314  0.79471356    -0.19770
F946        F  0.69238029  0.58581569  0.70678982    -0.19820
F947        F  0.63068985  0.51967713  0.75076537    -0.20140
F948        F  0.73022032  0.58344792  0.75993672    -0.22820
loop_ 
_geom_bond_atom_site_label_1 
_geom_bond_atom_site_label_2 
_geom_bond_distance 
_geom_bond_site_symmetry_2 
_ccdc_geom_bond_type 
In1           O3   2.220       .  S
In1          O12   2.217       .  S
In1           O6   2.250       .  S
In1         O241   2.251   1_545  S
In1         O482   2.249   1_455  S
In1         O720   2.245   1_445  S
In1         O721   2.222   1_445  S
In1         O724   2.218   1_455  S
C2           O10   1.260       .  A
C2          O245   1.265       .  A
C2          C194   1.477       .  S
O3          C248   1.261       .  A
O4         In238   2.251       .  S
O4           C11   1.264       .  A
C5           O12   1.259       .  A
C5            O6   1.267       .  A
C5          C223   1.488       .  S
C7            O9   1.265       .  A
C7           O13   1.262       .  A
C7          C207   1.488       .  S
O8         In475   2.249       .  S
O8          C239   1.265       .  A
O9         In712   2.245       .  S
O10        In712   2.222       .  S
C11         O240   1.261       .  A
C11         C175   1.491       .  S
O13        In712   2.218       .  S
C14          C15   1.385       .  D
C14         C162   1.512       .  S
C14         C191   1.513       .  S
C15         C143   1.499       .  S
C15         C178   1.510       .  S
In16         O21   2.237   1_665  S
In16         O23   2.224   1_665  S
In16        O492   2.208   1_565  S
In16        O730   2.271       .  S
In16        O501   2.234       .  S
In16        O735   2.264       .  S
In16        O262   2.251   1_655  S
In16        O265   2.219   1_655  S
C17          O23   1.260   1_565  A
C17         O262   1.263       .  A
C17         C146   1.485       .  S
O18        In490   2.208   1_545  S
O18         C263   1.258   1_545  A
O19        In727   2.271       .  S
O19          C26   1.264       .  A
C20          O21   1.261   1_655  A
C20         O501   1.262   1_545  A
C20         C111   1.483       .  S
C22          O24   1.264       .  A
C22         O502   1.257       .  A
C22         C127   1.476       .  S
O24        In727   2.264       .  S
O25        In253   2.251   1_455  S
O25         C254   1.263       .  A
C26         O255   1.258       .  A
C26         C159   1.478       .  S
O27        In490   2.234       .  S
O27         C494   1.262   1_565  A
O28        In253   2.219   1_455  S
O28         C496   1.257   1_455  A
C29          C30   1.383       .  D
C29          C82   1.508   1_655  S
C29         C130   1.512       .  S
C30          C98   1.503   1_655  S
C30         C114   1.497       .  S
In31         O33   2.206   1_564  S
In31         O34   2.262   1_564  S
In31         O42   2.236   1_565  S
In31        O510   2.241   1_465  S
In31        O749   2.233   1_454  S
In31        O276   2.258       .  S
In31        O751   2.233   1_454  S
In31        O754   2.212   1_455  S
C32          O38   1.266       .  A
C32          O40   1.261       .  A
C32          C66   1.488       .  S
O33          C41   1.257       .  A
O34          C41   1.268       .  A
C35          O42   1.262       .  A
C35         O510   1.262   1_455  A
C35          C95   1.484   1_455  S
O36        In505   2.241   1_545  S
O36         C509   1.262       .  A
C37          O39   1.266       .  A
C37         O517   1.258   1_455  A
C37          C79   1.473       .  S
O38        In742   2.233   1_556  S
O39        In268   2.258       .  S
O40        In742   2.233   1_556  S
C41          C47   1.492       .  S
O43        In742   2.212       .  S
O43         C511   1.258       .  A
C44          C45   1.382       .  D
C44          C50   1.495       .  S
C44         C226   1.508       .  S
C45          C63   1.510       .  S
C45         C210   1.513       .  S
C46          C47   1.406       .  A
C46          C51   1.408       .  A
C46          H53   1.084       .  S
C47          C48   1.425       .  A
C48          C49   1.402       .  A
C48          C55   1.523       .  S
C49          C50   1.401       .  A
C49          H54   1.081       .  S
C50          C51   1.422       .  A
C51          C52   1.518       .  S
C52          F56   1.383       .  S
C52          F57   1.377       .  S
C52          F58   1.384       .  S
C55          F59   1.384       .  S
C55          F60   1.383   1_455  S
C55          F61   1.385       .  S
C62          C63   1.410       .  A
C62          C67   1.405       .  A
C62          H69   1.082       .  S
C63          C64   1.429       .  A
C64          C65   1.405       .  A
C64          C71   1.515       .  S
C65          C66   1.401       .  A
C65          H70   1.085       .  S
C66          C67   1.419       .  A
C67          C68   1.521       .  S
C68          F72   1.385       .  S
C68          F73   1.383       .  S
C68          F74   1.384       .  S
C71          F75   1.383       .  S
C71          F76   1.367       .  S
C71          F77   1.385       .  S
C78          C79   1.397       .  A
C78          C83   1.407       .  A
C78          H85   1.083       .  S
C79          C80   1.412   1_455  A
C80          C81   1.404       .  A
C80          C87   1.519       .  S
C81          C82   1.410   1_655  A
C81          H86   1.080       .  S
C82          C83   1.430       .  A
C83          C84   1.523       .  S
C84          F88   1.385       .  S
C84          F89   1.378       .  S
C84         F564   1.382       .  S
C87          F91   1.384       .  S
C87         F566   1.382       .  S
C87         F567   1.385       .  S
F90         C558   1.382       .  S
F92         C561   1.382       .  S
F93         C561   1.385       .  S
C94          C95   1.404   1_455  A
C94          C99   1.407       .  A
C94         H101   1.085       .  S
C95         C570   1.416       .  A
C96          C97   1.404       .  A
C96         C569   1.416       .  A
C96         C103   1.520       .  S
C97         C572   1.407       .  A
C97         H102   1.077       .  S
C98          C99   1.423       .  A
C98         C571   1.407   1_455  A
C99         C100   1.514       .  S
C100        F104   1.384       .  S
C100        F105   1.372       .  S
C100        F106   1.383       .  S
C103        F107   1.384   1_545  S
C103        F108   1.383       .  S
C103        F109   1.385   1_545  S
C110        C115   1.404       .  A
C110        C585   1.403       .  A
C110        H117   1.084       .  S
C111        C112   1.418   1_655  A
C111        C584   1.403       .  A
C112        C113   1.405       .  A
C112        C119   1.519       .  S
C113        C114   1.405   1_455  A
C113        H118   1.079       .  S
C114        C589   1.421       .  A
C115        C588   1.421       .  A
C115        C116   1.515       .  S
C116        F120   1.384       .  S
C116        F121   1.372       .  S
C116        F122   1.383       .  S
C119        F123   1.383       .  S
C119        F124   1.384       .  S
C119        F125   1.385       .  S
C126        C127   1.399       .  A
C126        C131   1.409       .  A
C126        H133   1.083       .  S
C127        C602   1.411       .  A
C128        C129   1.403       .  A
C128        C601   1.411   1_455  A
C128        C135   1.519       .  S
C129        C130   1.410   1_455  A
C129        H134   1.078       .  S
C130        C605   1.431       .  A
C131        C604   1.431       .  A
C131        C132   1.524       .  S
C132        F136   1.385       .  S
C132        F137   1.377       .  S
C132        F612   1.382       .  S
C135        F140   1.382       .  S
C135        F141   1.385       .  S
C135        F613   1.384       .  S
F138        C606   1.382       .  S
F139        C609   1.384       .  S
C142        C147   1.402       .  A
C142        C380   1.404       .  A
C142        H149   1.074       .  S
C143        C144   1.423   1_545  A
C143        C379   1.404       .  A
C144        C145   1.409       .  A
C144        C151   1.517       .  S
C145        C146   1.405       .  A
C145        H150   1.084       .  S
C146        C384   1.417   1_565  A
C147        C383   1.417       .  A
C147        C148   1.522       .  S
C148        F154   1.384       .  S
C148        F389   1.385       .  S
C148        F390   1.383       .  S
C151        F155   1.384       .  S
C151        F393   1.375       .  S
C151        F394   1.384       .  S
F152        C385   1.385       .  S
F153        C385   1.383       .  S
F156        C388   1.375       .  S
F157        C388   1.384       .  S
C158        C163   1.403       .  A
C158        C396   1.399   1_545  A
C158        H165   1.086       .  S
C159        C160   1.411       .  A
C159        C395   1.399       .  A
C160        C161   1.407       .  A
C160        C167   1.518       .  S
C161        C399   1.414       .  A
C161        H166   1.082       .  S
C162        C163   1.428       .  A
C162        C398   1.414   1_545  A
C163        C164   1.514       .  S
C164        F168   1.385       .  S
C164        F169   1.367       .  S
C164        F407   1.383       .  S
C167        F172   1.383       .  S
C167        F173   1.385       .  S
C167        F408   1.384       .  S
F170        C401   1.383       .  S
F171        C404   1.384       .  S
C174        C179   1.403       .  A
C174        C412   1.403       .  A
C174        H181   1.084       .  S
C175        C176   1.417       .  A
C175        C411   1.403       .  A
C176        C177   1.408       .  A
C176        C183   1.519       .  S
C177        C415   1.409       .  A
C177        H182   1.074       .  S
C178        C179   1.423       .  A
C178        C414   1.409   1_545  A
C179        C180   1.511       .  S
C180        F184   1.384       .  S
C180        F186   1.366       .  S
C180        F422   1.384       .  S
C183        F187   1.383       .  S
C183        F189   1.385       .  S
C183        F425   1.384       .  S
F185        C417   1.384       .  S
F188        C420   1.384       .  S
C190        C195   1.404       .  A
C190        C428   1.409       .  A
C190        H197   1.076       .  S
C191        C192   1.431       .  A
C191        C427   1.409   1_545  A
C192        C193   1.409       .  A
C192        C199   1.523       .  S
C193        C431   1.397       .  A
C193        H198   1.082       .  S
C194        C195   1.412       .  A
C194        C430   1.397       .  A
C195        C196   1.520       .  S
C196        F202   1.382       .  S
C196        F437   1.385       .  S
C196        F438   1.384       .  S
C199        F203   1.374       .  S
C199        F441   1.378       .  S
C199        F442   1.385       .  S
F200        C433   1.385       .  S
F201        C433   1.384       .  S
F204        C436   1.378       .  S
F205        C436   1.385       .  S
C206        C207   1.404       .  A
C206        C211   1.406       .  A
C206        H213   1.081       .  S
C207        C208   1.416       .  A
C208        C209   1.407       .  A
C208        C215   1.519       .  S
C209        C210   1.410       .  A
C209        H214   1.077       .  S
C210        C211   1.426       .  A
C211        C212   1.524       .  S
C212        F216   1.385       .  S
C212        F217   1.380       .  S
C212        F218   1.374       .  S
C215        F219   1.383       .  S
C215        F220   1.384       .  S
C215        F221   1.385       .  S
C222        C223   1.402       .  A
C222        C227   1.406       .  A
C222        H229   1.084       .  S
C223        C224   1.420       .  A
C224        C225   1.405       .  A
C224        C231   1.521       .  S
C225        C226   1.406       .  A
C225        H230   1.078       .  S
C226        C227   1.425       .  A
C227        C228   1.511       .  S
C228        F232   1.384       .  S
C228        F233   1.366       .  S
C228        F234   1.384       .  S
C231        F235   1.384       .  S
C231        F236   1.383       .  S
C231        F237   1.385       .  S
In238       O240   2.220       .  S
In238       O249   2.217       .  S
In238       O243   2.250       .  S
In238       O719   2.249   1_455  S
In238       O483   2.245   1_455  S
In238       O484   2.222   1_455  S
In238       O487   2.218   1_455  S
C239        O247   1.260   1_545  A
C239        C431   1.477       .  S
O241        C248   1.264   1_565  A
C242        O249   1.259       .  A
C242        O243   1.267       .  A
C242        C460   1.488       .  S
C244        O246   1.265       .  A
C244        O250   1.262   1_565  A
C244        C444   1.488       .  S
O245       In712   2.249       .  S
O246       In475   2.245   1_565  S
O247       In475   2.222   1_565  S
C248        C412   1.491       .  S
O250       In475   2.218       .  S
C251        C252   1.385       .  D
C251        C399   1.512       .  S
C251        C428   1.513       .  S
C252        C380   1.499       .  S
C252        C415   1.510       .  S
In253       O729   2.208       .  S
In253       O493   2.271       .  S
In253       O738   2.234       .  S
In253       O258   2.237   1_655  S
In253       O260   2.224   1_655  S
In253       O498   2.264       .  S
C254        O260   1.260       .  A
C254        C383   1.485       .  S
O255       In727   2.208       .  S
O256       In490   2.271       .  S
O256        C263   1.264       .  A
C257        O738   1.262       .  A
C257        O258   1.261   1_655  A
C257        C348   1.483       .  S
C259        O261   1.264       .  A
C259        O739   1.257       .  A
C259        C364   1.476       .  S
O261       In490   2.264       .  S
C263        C396   1.478       .  S
O264       In727   2.234       .  S
O264        C731   1.262       .  A
O265        C733   1.257   1_455  A
C266        C267   1.383       .  D
C266        C319   1.508   1_655  S
C266        C367   1.512       .  S
C267        C335   1.503   1_655  S
C267        C351   1.497       .  S
In268       O270   2.206   1_554  S
In268       O271   2.262   1_554  S
In268       O279   2.236       .  S
In268       O747   2.241   1_455  S
In268       O512   2.233   1_454  S
In268       O514   2.233   1_454  S
In268       O517   2.212   1_455  S
C269        O275   1.266       .  A
C269        O277   1.261       .  A
C269        C303   1.488       .  S
O270        C278   1.257       .  A
O271        C278   1.268       .  A
C272        O279   1.262       .  A
C272        O747   1.262   1_455  A
C272        C332   1.484   1_455  S
O273       In742   2.241       .  S
O273        C746   1.262       .  A
C274        O276   1.266       .  A
C274        O754   1.258   1_455  A
C274        C316   1.473       .  S
O275       In505   2.233   1_556  S
O277       In505   2.233   1_556  S
C278        C284   1.492       .  S
O280       In505   2.212       .  S
O280        C748   1.258       .  A
C281        C282   1.382       .  D
C281        C287   1.495       .  S
C281        C463   1.508       .  S
C282        C300   1.510       .  S
C282        C447   1.513       .  S
C283        C284   1.406       .  A
C283        C288   1.408       .  A
C283        H290   1.084       .  S
C284        C285   1.425       .  A
C285        C286   1.402       .  A
C285        C292   1.523       .  S
C286        C287   1.401       .  A
C286        H291   1.081       .  S
C287        C288   1.422       .  A
C288        C289   1.518       .  S
C289        F293   1.383       .  S
C289        F294   1.377       .  S
C289        F295   1.384       .  S
C292        F296   1.384       .  S
C292        F297   1.383   1_455  S
C292        F298   1.385       .  S
C299        C300   1.410       .  A
C299        C304   1.405       .  A
C299        H306   1.082       .  S
C300        C301   1.429       .  A
C301        C302   1.405       .  A
C301        C308   1.515       .  S
C302        C303   1.401       .  A
C302        H307   1.085       .  S
C303        C304   1.419       .  A
C304        C305   1.521       .  S
C305        F309   1.385       .  S
C305        F310   1.383       .  S
C305        F311   1.384       .  S
C308        F312   1.383       .  S
C308        F313   1.367       .  S
C308        F314   1.385       .  S
C315        C316   1.397       .  A
C315        C320   1.407       .  A
C315        H322   1.083       .  S
C316        C317   1.412   1_455  A
C317        C318   1.404       .  A
C317        C324   1.519       .  S
C318        C319   1.410   1_655  A
C318        H323   1.080       .  S
C319        C320   1.430       .  A
C320        C321   1.523       .  S
C321        F325   1.385       .  S
C321        F326   1.378       .  S
C321        F801   1.382       .  S
C324        F328   1.384       .  S
C324        F803   1.382       .  S
C324        F804   1.385       .  S
F327        C795   1.382       .  S
F329        C798   1.382       .  S
F330        C798   1.385       .  S
C331        C332   1.404   1_455  A
C331        C336   1.407       .  A
C331        H338   1.085       .  S
C332        C807   1.416       .  A
C333        C806   1.416       .  A
C333        C334   1.404       .  A
C333        C340   1.520       .  S
C334        C809   1.407       .  A
C334        H339   1.077       .  S
C335        C808   1.407   1_455  A
C335        C336   1.423       .  A
C336        C337   1.514       .  S
C337        F341   1.384       .  S
C337        F342   1.372       .  S
C337        F343   1.383       .  S
C340        F344   1.384       .  S
C340        F345   1.383       .  S
C340        F346   1.385       .  S
C347        C822   1.403       .  A
C347        C352   1.404       .  A
C347        H354   1.084       .  S
C348        C821   1.403       .  A
C348        C349   1.418   1_655  A
C349        C350   1.405       .  A
C349        C356   1.519       .  S
C350        C351   1.405   1_455  A
C350        H355   1.079       .  S
C351        C826   1.421       .  A
C352        C825   1.421       .  A
C352        C353   1.515       .  S
C353        F357   1.384       .  S
C353        F358   1.372       .  S
C353        F359   1.383       .  S
C356        F360   1.383       .  S
C356        F361   1.384       .  S
C356        F362   1.385       .  S
C363        C364   1.399       .  A
C363        C368   1.409       .  A
C363        H370   1.083       .  S
C364        C839   1.411       .  A
C365        C838   1.411   1_455  A
C365        C366   1.403       .  A
C365        C372   1.519       .  S
C366        C367   1.410   1_455  A
C366        H371   1.078       .  S
C367        C842   1.431       .  A
C368        C841   1.431       .  A
C368        C369   1.524       .  S
C369        F373   1.385       .  S
C369        F374   1.377       .  S
C369        F849   1.382       .  S
C372        F850   1.384       .  S
C372        F377   1.382       .  S
C372        F378   1.385       .  S
F375        C843   1.382       .  S
F376        C846   1.384       .  S
C379        C384   1.402       .  A
C379        H386   1.074       .  S
C380        C381   1.423       .  A
C381        C382   1.409       .  A
C381        C388   1.517       .  S
C382        C383   1.405       .  A
C382        H387   1.084       .  S
C384        C385   1.522       .  S
C385        F391   1.384       .  S
C388        F392   1.384       .  S
C395        C400   1.403       .  A
C395        H402   1.086       .  S
C396        C397   1.411       .  A
C397        C398   1.407       .  A
C397        C404   1.518       .  S
C398        H403   1.082       .  S
C399        C400   1.428       .  A
C400        C401   1.514       .  S
C401        F405   1.385       .  S
C401        F406   1.367       .  S
C404        F409   1.383       .  S
C404        F410   1.385       .  S
C411        C416   1.403       .  A
C411        H418   1.084       .  S
C412        C413   1.417   1_545  A
C413        C414   1.408       .  A
C413        C420   1.519       .  S
C414        H419   1.074       .  S
C415        C416   1.423       .  A
C416        C417   1.511       .  S
C417        F421   1.384       .  S
C417        F423   1.366       .  S
C420        F424   1.383       .  S
C420        F426   1.385       .  S
C427        C432   1.404       .  A
C427        H434   1.076       .  S
C428        C429   1.431       .  A
C429        C430   1.409       .  A
C429        C436   1.523       .  S
C430        H435   1.082       .  S
C431        C432   1.412   1_545  A
C432        C433   1.520       .  S
C433        F439   1.382       .  S
C436        F440   1.374       .  S
C443        C444   1.404       .  A
C443        C448   1.406       .  A
C443        H450   1.081       .  S
C444        C445   1.416       .  A
C445        C446   1.407       .  A
C445        C452   1.519       .  S
C446        C447   1.410       .  A
C446        H451   1.077       .  S
C447        C448   1.426       .  A
C448        C449   1.524       .  S
C449        F453   1.385   1_565  S
C449        F454   1.380       .  S
C449        F455   1.374       .  S
C452        F456   1.383       .  S
C452        F457   1.384       .  S
C452        F458   1.385       .  S
C459        C460   1.402       .  A
C459        C464   1.406       .  A
C459        H466   1.084       .  S
C460        C461   1.420       .  A
C461        C462   1.405       .  A
C461        C468   1.521       .  S
C462        C463   1.406       .  A
C462        H467   1.078       .  S
C463        C464   1.425       .  A
C464        C465   1.511       .  S
C465        F469   1.384       .  S
C465        F470   1.366       .  S
C465        F471   1.384       .  S
C468        F472   1.384       .  S
C468        F473   1.383       .  S
C468        F474   1.385       .  S
In475       O477   2.220       .  S
In475       O715   2.251   1_545  S
In475       O486   2.217       .  S
In475       O480   2.250       .  S
C476        O719   1.265       .  A
C476        O484   1.260       .  A
C476        C668   1.477       .  S
O477        C722   1.261       .  A
O478       In712   2.251       .  S
O478        C485   1.264       .  A
C479        O486   1.259       .  A
C479        O480   1.267       .  A
C479        C697   1.488       .  S
C481        O483   1.265       .  A
C481        O487   1.262       .  A
C481        C681   1.488       .  S
O482        C713   1.265       .  A
C485        O714   1.261       .  A
C485        C649   1.491       .  S
C488        C489   1.385       .  D
C488        C636   1.512       .  S
C488        C665   1.513       .  S
C489        C617   1.499       .  S
C489        C652   1.510       .  S
In490       O495   2.237   1_565  S
In490       O497   2.224   1_565  S
In490       O736   2.251       .  S
In490       O739   2.219       .  S
C491        O497   1.260   1_565  A
C491        O736   1.263       .  A
C491        C620   1.485       .  S
O492        C737   1.258   1_545  A
O493        C500   1.264       .  A
C494        O495   1.261       .  A
C494        C585   1.483       .  S
C496        O498   1.264       .  A
C496        C601   1.476       .  S
O499       In727   2.251       .  S
O499        C728   1.263       .  A
C500        O729   1.258       .  A
C500        C633   1.478       .  S
O502       In727   2.219       .  S
C503        C504   1.383       .  D
C503        C556   1.508       .  S
C503        C604   1.512       .  S
C504        C572   1.503       .  S
C504        C588   1.497       .  S
In505       O507   2.206   1_564  S
In505       O508   2.262   1_564  S
In505       O516   2.236   1_565  S
In505       O750   2.258       .  S
C506        O512   1.266       .  A
C506        O514   1.261       .  A
C506        C540   1.488       .  S
O507        C515   1.257       .  A
O508        C515   1.268       .  A
C509        O516   1.262       .  A
C509        C569   1.484       .  S
C511        O513   1.266       .  A
C511        C553   1.473       .  S
O513       In742   2.258       .  S
C515        C521   1.492       .  S
C518        C519   1.382       .  D
C518        C524   1.495       .  S
C518        C700   1.508       .  S
C519        C537   1.510       .  S
C519        C684   1.513       .  S
C520        C521   1.406       .  A
C520        C525   1.408       .  A
C520        H527   1.084       .  S
C521        C522   1.425       .  A
C522        C523   1.402       .  A
C522        C529   1.523       .  S
C523        C524   1.401       .  A
C523        H528   1.081       .  S
C524        C525   1.422       .  A
C525        C526   1.518       .  S
C526        F530   1.383       .  S
C526        F531   1.377       .  S
C526        F532   1.384       .  S
C529        F533   1.384       .  S
C529        F534   1.383       .  S
C529        F535   1.385       .  S
C536        C537   1.410       .  A
C536        C541   1.405       .  A
C536        H543   1.082       .  S
C537        C538   1.429       .  A
C538        C539   1.405       .  A
C538        C545   1.515       .  S
C539        C540   1.401       .  A
C539        H544   1.085       .  S
C540        C541   1.419       .  A
C541        C542   1.521       .  S
C542        F546   1.385       .  S
C542        F547   1.383       .  S
C542        F548   1.384   1_655  S
C545        F549   1.383       .  S
C545        F550   1.367       .  S
C545        F551   1.385       .  S
C552        C553   1.397       .  A
C552        C557   1.407       .  A
C552        H559   1.083       .  S
C553        C554   1.412       .  A
C554        C555   1.404       .  A
C554        C561   1.519       .  S
C555        C556   1.410       .  A
C555        H560   1.080       .  S
C556        C557   1.430       .  A
C557        C558   1.523       .  S
C558        F562   1.385       .  S
C558        F563   1.378       .  S
C561        F565   1.384       .  S
C568        C569   1.404       .  A
C568        C573   1.407       .  A
C568        H575   1.085       .  S
C570        C571   1.404       .  A
C570        C577   1.520       .  S
C571        H576   1.077       .  S
C572        C573   1.423       .  A
C573        C574   1.514       .  S
C574        F578   1.384       .  S
C574        F579   1.372       .  S
C574        F580   1.383       .  S
C577        F581   1.384   1_545  S
C577        F582   1.383       .  S
C577        F583   1.385   1_545  S
C584        C589   1.404       .  A
C584        H591   1.084       .  S
C585        C586   1.418       .  A
C586        C587   1.405       .  A
C586        C593   1.519       .  S
C587        C588   1.405       .  A
C587        H592   1.079       .  S
C589        C590   1.515       .  S
C590        F594   1.384       .  S
C590        F595   1.372       .  S
C590        F596   1.383       .  S
C593        F597   1.383       .  S
C593        F598   1.384       .  S
C593        F599   1.385       .  S
C600        C601   1.399       .  A
C600        C605   1.409       .  A
C600        H607   1.083       .  S
C602        C603   1.403       .  A
C602        C609   1.519       .  S
C603        C604   1.410       .  A
C603        H608   1.078       .  S
C605        C606   1.524       .  S
C606        F610   1.385       .  S
C606        F611   1.377       .  S
C609        F614   1.382       .  S
C609        F615   1.385       .  S
C616        C854   1.404       .  A
C616        C621   1.402       .  A
C616        H623   1.074       .  S
C617        C853   1.404       .  A
C617        C618   1.423   1_545  A
C618        C619   1.409       .  A
C618        C625   1.517       .  S
C619        C620   1.405       .  A
C619        H624   1.084       .  S
C620        C858   1.417   1_565  A
C621        C857   1.417       .  A
C621        C622   1.522       .  S
C622        F863   1.385       .  S
C622        F864   1.383       .  S
C622        F628   1.384       .  S
C625        F629   1.384       .  S
C625        F867   1.375       .  S
C625        F868   1.384       .  S
F626        C859   1.385       .  S
F627        C859   1.383       .  S
F630        C862   1.375       .  S
F631        C862   1.384       .  S
C632        C870   1.399   1_545  A
C632        C637   1.403       .  A
C632        H639   1.086       .  S
C633        C869   1.399       .  A
C633        C634   1.411       .  A
C634        C635   1.407       .  A
C634        C641   1.518       .  S
C635        C873   1.414       .  A
C635        H640   1.082       .  S
C636        C872   1.414   1_545  A
C636        C637   1.428       .  A
C637        C638   1.514       .  S
C638        F642   1.385       .  S
C638        F643   1.367       .  S
C638        F881   1.383       .  S
C641        F882   1.384       .  S
C641        F646   1.383       .  S
C641        F647   1.385       .  S
F644        C875   1.383       .  S
F645        C878   1.384       .  S
C648        C886   1.403       .  A
C648        C653   1.403       .  A
C648        H655   1.084       .  S
C649        C885   1.403       .  A
C649        C650   1.417       .  A
C650        C651   1.408       .  A
C650        C657   1.519       .  S
C651        C889   1.409       .  A
C651        H656   1.074       .  S
C652        C888   1.409   1_545  A
C652        C653   1.423       .  A
C653        C654   1.511       .  S
C654        F658   1.384       .  S
C654        F896   1.384       .  S
C654        F660   1.366       .  S
C657        F661   1.383       .  S
C657        F899   1.384       .  S
C657        F663   1.385       .  S
F659        C891   1.384       .  S
F662        C894   1.384       .  S
C664        C902   1.409       .  A
C664        C669   1.404       .  A
C664        H671   1.076       .  S
C665        C901   1.409   1_545  A
C665        C666   1.431       .  A
C666        C667   1.409       .  A
C666        C673   1.523       .  S
C667        C905   1.397       .  A
C667        H672   1.082       .  S
C668        C904   1.397       .  A
C668        C669   1.412       .  A
C669        C670   1.520       .  S
C670        F911   1.385       .  S
C670        F912   1.384       .  S
C670        F676   1.382       .  S
C673        F677   1.374       .  S
C673        F915   1.378       .  S
C673        F916   1.385       .  S
F674        C907   1.385       .  S
F675        C907   1.384       .  S
F678        C910   1.378       .  S
F679        C910   1.385       .  S
C680        C681   1.404       .  A
C680        C685   1.406       .  A
C680        H687   1.081       .  S
C681        C682   1.416       .  A
C682        C683   1.407       .  A
C682        C689   1.519       .  S
C683        C684   1.410       .  A
C683        H688   1.077       .  S
C684        C685   1.426       .  A
C685        C686   1.524       .  S
C686        F690   1.385       .  S
C686        F691   1.380       .  S
C686        F692   1.374       .  S
C689        F693   1.383       .  S
C689        F694   1.384       .  S
C689        F695   1.385       .  S
C696        C697   1.402       .  A
C696        C701   1.406       .  A
C696        H703   1.084       .  S
C697        C698   1.420       .  A
C698        C699   1.405       .  A
C698        C705   1.521       .  S
C699        C700   1.406       .  A
C699        H704   1.078       .  S
C700        C701   1.425       .  A
C701        C702   1.511       .  S
C702        F706   1.384       .  S
C702        F707   1.366       .  S
C702        F708   1.384       .  S
C705        F709   1.384       .  S
C705        F710   1.383       .  S
C705        F711   1.385       .  S
In712       O714   2.220       .  S
In712       O723   2.217       .  S
In712       O717   2.250       .  S
C713        O721   1.260   1_545  A
C713        C905   1.477       .  S
O715        C722   1.264   1_565  A
C716        O723   1.259       .  A
C716        O717   1.267       .  A
C716        C934   1.488       .  S
C718        O720   1.265       .  A
C718        O724   1.262   1_565  A
C718        C918   1.488       .  S
C722        C886   1.491       .  S
C725        C726   1.385       .  D
C725        C873   1.512       .  S
C725        C902   1.513       .  S
C726        C854   1.499       .  S
C726        C889   1.510       .  S
In727       O732   2.237       .  S
In727       O734   2.224       .  S
C728        O734   1.260       .  A
C728        C857   1.485       .  S
O730        C737   1.264       .  A
C731        O732   1.261       .  A
C731        C822   1.483       .  S
C733        O735   1.264       .  A
C733        C838   1.476       .  S
C737        C870   1.478       .  S
C740        C741   1.383       .  D
C740        C793   1.508       .  S
C740        C841   1.512       .  S
C741        C809   1.503       .  S
C741        C825   1.497       .  S
In742       O744   2.206   1_554  S
In742       O745   2.262   1_554  S
In742       O753   2.236       .  S
C743        O749   1.266       .  A
C743        O751   1.261       .  A
C743        C777   1.488       .  S
O744        C752   1.257       .  A
O745        C752   1.268       .  A
C746        O753   1.262       .  A
C746        C806   1.484       .  S
C748        O750   1.266       .  A
C748        C790   1.473       .  S
C752        C758   1.492       .  S
C755        C756   1.382       .  D
C755        C761   1.495       .  S
C755        C937   1.508       .  S
C756        C774   1.510       .  S
C756        C921   1.513       .  S
C757        C758   1.406       .  A
C757        C762   1.408       .  A
C757        H764   1.084       .  S
C758        C759   1.425       .  A
C759        C760   1.402       .  A
C759        C766   1.523       .  S
C760        C761   1.401       .  A
C760        H765   1.081       .  S
C761        C762   1.422       .  A
C762        C763   1.518       .  S
C763        F767   1.383       .  S
C763        F768   1.377       .  S
C763        F769   1.384       .  S
C766        F770   1.384       .  S
C766        F771   1.383       .  S
C766        F772   1.385       .  S
C773        C774   1.410       .  A
C773        C778   1.405       .  A
C773        H780   1.082       .  S
C774        C775   1.429       .  A
C775        C776   1.405       .  A
C775        C782   1.515       .  S
C776        C777   1.401       .  A
C776        H781   1.085       .  S
C777        C778   1.419       .  A
C778        C779   1.521       .  S
C779        F783   1.385       .  S
C779        F784   1.383       .  S
C779        F785   1.384   1_655  S
C782        F786   1.383       .  S
C782        F787   1.367       .  S
C782        F788   1.385       .  S
C789        C790   1.397       .  A
C789        C794   1.407       .  A
C789        H796   1.083       .  S
C790        C791   1.412       .  A
C791        C792   1.404       .  A
C791        C798   1.519       .  S
C792        C793   1.410       .  A
C792        H797   1.080       .  S
C793        C794   1.430       .  A
C794        C795   1.523       .  S
C795        F799   1.385       .  S
C795        F800   1.378       .  S
C798        F802   1.384       .  S
C805        C806   1.404       .  A
C805        C810   1.407       .  A
C805        H812   1.085       .  S
C807        C808   1.404       .  A
C807        C814   1.520       .  S
C808        H813   1.077       .  S
C809        C810   1.423       .  A
C810        C811   1.514       .  S
C811        F815   1.384       .  S
C811        F816   1.372       .  S
C811        F817   1.383       .  S
C814        F818   1.384       .  S
C814        F819   1.383       .  S
C814        F820   1.385       .  S
C821        C826   1.404       .  A
C821        H828   1.084       .  S
C822        C823   1.418       .  A
C823        C824   1.405       .  A
C823        C830   1.519       .  S
C824        C825   1.405       .  A
C824        H829   1.079       .  S
C826        C827   1.515       .  S
C827        F831   1.384       .  S
C827        F832   1.372       .  S
C827        F833   1.383       .  S
C830        F834   1.383       .  S
C830        F835   1.384       .  S
C830        F836   1.385       .  S
C837        C838   1.399       .  A
C837        C842   1.409       .  A
C837        H844   1.083       .  S
C839        C840   1.403       .  A
C839        C846   1.519       .  S
C840        C841   1.410       .  A
C840        H845   1.078       .  S
C842        C843   1.524       .  S
C843        F847   1.385       .  S
C843        F848   1.377       .  S
C846        F851   1.382       .  S
C846        F852   1.385       .  S
C853        C858   1.402       .  A
C853        H860   1.074       .  S
C854        C855   1.423       .  A
C855        C856   1.409       .  A
C855        C862   1.517       .  S
C856        C857   1.405       .  A
C856        H861   1.084       .  S
C858        C859   1.522       .  S
C859        F865   1.384       .  S
C862        F866   1.384       .  S
C869        C874   1.403       .  A
C869        H876   1.086       .  S
C870        C871   1.411       .  A
C871        C872   1.407       .  A
C871        C878   1.518       .  S
C872        H877   1.082       .  S
C873        C874   1.428       .  A
C874        C875   1.514       .  S
C875        F879   1.385       .  S
C875        F880   1.367       .  S
C878        F883   1.383       .  S
C878        F884   1.385       .  S
C885        C890   1.403       .  A
C885        H892   1.084       .  S
C886        C887   1.417   1_545  A
C887        C888   1.408       .  A
C887        C894   1.519       .  S
C888        H893   1.074       .  S
C889        C890   1.423       .  A
C890        C891   1.511       .  S
C891        F895   1.384       .  S
C891        F897   1.366       .  S
C894        F898   1.383       .  S
C894        F900   1.385       .  S
C901        C906   1.404       .  A
C901        H908   1.076       .  S
C902        C903   1.431       .  A
C903        C904   1.409       .  A
C903        C910   1.523       .  S
C904        H909   1.082       .  S
C905        C906   1.412   1_545  A
C906        C907   1.520       .  S
C907        F913   1.382       .  S
C910        F914   1.374       .  S
C917        C918   1.404       .  A
C917        C922   1.406       .  A
C917        H924   1.081       .  S
C918        C919   1.416       .  A
C919        C920   1.407       .  A
C919        C926   1.519       .  S
C920        C921   1.410       .  A
C920        H925   1.077       .  S
C921        C922   1.426       .  A
C922        C923   1.524       .  S
C923        F927   1.385   1_565  S
C923        F928   1.380       .  S
C923        F929   1.374       .  S
C926        F930   1.383       .  S
C926        F931   1.384       .  S
C926        F932   1.385       .  S
C933        C934   1.402       .  A
C933        C938   1.406       .  A
C933        H940   1.084       .  S
C934        C935   1.420       .  A
C935        C936   1.405       .  A
C935        C942   1.521       .  S
C936        C937   1.406       .  A
C936        H941   1.078       .  S
C937        C938   1.425       .  A
C938        C939   1.511       .  S
C939        F943   1.384       .  S
C939        F944   1.366       .  S
C939        F945   1.384       .  S
C942        F946   1.384       .  S
C942        F947   1.383       .  S
C942        F948   1.385       .  S
