geometry optimzed in LAMMPS
_audit_creation_date              2020-11-30 
_audit_creation_method            'lammps2cif' 
_symmetry_space_group_name_H-M    'P1' 
_symmetry_Int_Tables_number       1 
_symmetry_cell_setting            triclinic 
loop_ 
_symmetry_equiv_pos_as_xyz 
  x,y,z 
_cell_length_a                    29.98830597 
_cell_length_b                    29.108565239045355 
_cell_length_c                    47.39802523067637 
_cell_angle_alpha                 90.0531486297187 
_cell_angle_beta                  90.11226128726437 
_cell_angle_gamma                 90.00560022498688 
loop_ 
_atom_site_label 
_atom_site_type_symbol 
_atom_site_fract_x 
_atom_site_fract_y 
_atom_site_fract_z 
_atom_site_charge 
O1          O  0.50893871  0.41638675  0.41982044    -0.80500
O2          O  0.50846753  0.42020286  0.58137387    -0.82000
O3          O  0.57989526  0.36412227  0.49986583    -0.79000
O4          O  0.43122188  0.36703860  0.50185667    -0.77400
O5          O  0.37968585  0.42474341  0.50079303    -0.79200
O6          O  0.63385103  0.41952138  0.50021894    -0.80100
O7          O  0.50798612  0.36522445  0.54684907    -0.81500
O8          O  0.50574316  0.36292892  0.45515420    -0.81800
Eu9        Eu  0.50642124  0.40247996  0.50066529     2.39200
O10         O  0.46213856  0.45015777  0.52922284    -0.89300
O11         O  0.55226505  0.44774877  0.47158744    -0.92900
C12         C  0.50726148  0.37441563  0.42889328     1.01800
C13         C  0.50888174  0.37781159  0.57294986     1.01600
C14         C  0.62108064  0.37731894  0.49980531     1.01600
C15         C  0.39054845  0.38196464  0.50161339     0.99400
H16         H  0.57062443  0.42978884  0.54111252     0.29200
O17         O  0.55197570  0.44894354  0.52938303    -1.01700
H18         H  0.44400517  0.42993664  0.45954103     0.29200
O19         O  0.46318254  0.44918754  0.47088899    -1.04200
O20         O  0.51105611  0.57375157  0.58031007    -0.81400
O21         O  0.51086981  0.57091863  0.41771338    -0.81000
O22         O  0.63419595  0.49506133  0.54670135    -0.79400
O23         O  0.38108618  0.49948032  0.54466549    -0.82700
O24         O  0.38354700  0.49543027  0.45357327    -0.80600
O25         O  0.63546793  0.49084078  0.45433685    -0.79200
O26         O  0.58397147  0.62514004  0.50015810    -0.80800
O27         O  0.43809678  0.62805041  0.49672374    -0.82700
O28         O  0.63617533  0.56804052  0.50058812    -0.79400
O29         O  0.38416098  0.57269717  0.49687485    -0.82100
O30         O  0.58102830  0.49772885  0.58120428    -0.77800
O31         O  0.58324588  0.49083810  0.41913383    -0.77900
O32         O  0.43529764  0.49377619  0.41826609    -0.77500
O33         O  0.43267843  0.49802898  0.58019499    -0.81000
O34         O  0.51313627  0.62742275  0.54505207    -0.80400
O35         O  0.51286153  0.62555607  0.45242573    -0.78800
Eu36       Eu  0.50746018  0.49675580  0.55807484     2.39800
Eu37       Eu  0.50910419  0.49430949  0.44139773     2.39600
Eu38       Eu  0.59761866  0.49414374  0.50024768     2.38400
Eu39       Eu  0.41982837  0.49752501  0.49945808     2.39900
Eu40       Eu  0.51035315  0.58863243  0.49895872     2.39800
O41         O  0.46500480  0.54246160  0.47004704    -0.93200
O42         O  0.55335736  0.54163500  0.52860420    -0.92100
C43         C  0.51348481  0.61569085  0.57134400     1.02000
C44         C  0.51256116  0.61328201  0.42622838     1.00700
C45         C  0.62199040  0.49677211  0.57280238     1.00100
C46         C  0.39201791  0.49885104  0.57097167     1.02100
C47         C  0.39467579  0.49413678  0.42736438     1.01000
C48         C  0.62400165  0.48990288  0.42805686     0.99900
C49         C  0.62462568  0.61067980  0.50064397     0.99900
C50         C  0.39700057  0.61491598  0.49609627     1.02500
H51         H  0.57417071  0.55935150  0.45878873     0.29900
O52         O  0.55471051  0.54088859  0.47036861    -1.05300
H53         H  0.44557172  0.56426917  0.53965384     0.32000
O54         O  0.46417184  0.54431103  0.52842470    -1.07900
N55         N  0.00969885  0.92454724  0.49251509    -0.36900
N56         N  0.07664420  0.99628346  0.49459407    -0.57500
N57         N  0.00642825  0.06535425  0.49400176    -0.36900
N58         N  0.93965261  0.99371267  0.49584130    -0.57500
C59         C  0.04682892  0.89949816  0.49761705     0.26600
C60         C  0.97431867  0.89828208  0.49974348     0.26600
C61         C  0.04209860  0.09136169  0.50106252     0.26600
C62         C  0.96958061  0.09007438  0.50028693     0.26600
C63         C  0.10313166  0.96014451  0.48831008     0.35300
C64         C  0.10153225  0.03439279  0.49050006     0.35300
C65         C  0.91458018  0.95589695  0.49133071     0.35300
C66         C  0.91290873  0.03008577  0.49065357     0.35300
C67         C  0.03491249  0.85671845  0.50802621    -0.22200
C68         C  0.98912718  0.85598299  0.50942155    -0.22200
C69         C  0.02771255  0.13309427  0.51190441    -0.22200
C70         C  0.98190373  0.13234125  0.51130718    -0.22200
C71         C  0.14498531  0.97540845  0.48018874    -0.23300
C72         C  0.14402299  0.02244477  0.48170360    -0.23300
C73         C  0.87173448  0.96827926  0.48333718    -0.23300
C74         C  0.87070135  0.01536362  0.48286364    -0.23300
C75         C  0.09102986  0.91358690  0.49194036    -0.18600
C76         C  0.92903145  0.91045818  0.49615553    -0.18600
C77         C  0.92521155  0.07628732  0.49503825    -0.18600
C78         C  0.08717517  0.07966793  0.49618725    -0.18600
H79         H  0.05689938  0.82888876  0.51401511     0.14300
H80         H  0.96903390  0.82740075  0.51657391     0.12300
H81         H  0.04809414  0.16137984  0.51925252     0.14300
H82         H  0.96015704  0.15983458  0.51815555     0.14300
H83         H  0.17345044  0.95486440  0.47407998     0.12600
H84         H  0.17153423  0.04520006  0.47694536     0.12600
H85         H  0.84403211  0.94576064  0.47849491     0.12600
H86         H  0.84203180  0.03633402  0.47769463     0.12600
H87         H  0.00843476  0.95563182  0.48177224     0.25800
H88         H  0.00716848  0.03490547  0.48254022     0.25800
O89         O  0.98940373  0.92185568  0.91959606    -0.80500
O90         O  0.98309258  0.92458208  0.08132528    -0.82000
O91         O  0.06172985  0.87018593  0.00248682    -0.79000
O92         O  0.91562583  0.86881168  0.00186452    -0.77400
O93         O  0.86208525  0.92454597  0.00065966    -0.79200
O94         O  0.11482415  0.92642752  0.00274638    -0.80100
O95         O  0.98489349  0.87006286  0.04657399    -0.81500
O96         O  0.98791238  0.86835422  0.95493446    -0.81800
Eu97       Eu  0.98824430  0.90768851  0.00063412     2.39200
O98         O  0.94242543  0.95463610  0.02855825    -0.89300
O99         O  0.03370451  0.95351348  0.97178703    -0.92900
C100        C  0.98822696  0.87987868  0.92864877     1.01800
C101        C  0.98285511  0.88226235  0.07269092     1.01600
C102        C  0.10267048  0.88391244  0.00313805     1.01600
C103        C  0.87460816  0.88221767  0.00179396     0.99400
H104        H  0.05042336  0.93555156  0.04224638     0.29200
O105        O  0.03199188  0.95446475  0.03022095    -1.01700
H106        H  0.92510763  0.93341065  0.95922610     0.29200
O107        O  0.94360062  0.95306958  0.97077205    -1.04200
O108        O  0.98659850  0.07945907  0.08006715    -0.81400
O109        O  0.98530126  0.07545970  0.91828025    -0.81000
O110        O  0.11262082  0.00288124  0.04750958    -0.79400
O111        O  0.85928492  0.99984505  0.04459676    -0.82700
O112        O  0.86145965  0.99810767  0.95241578    -0.80600
O113        O  0.11536445  0.99972798  0.95617991    -0.79200
O114        O  0.05998098  0.13153952  0.00111835    -0.80800
O115        O  0.91386639  0.13072738  0.99653597    -0.82700
O116        O  0.11359555  0.07592652  0.00284794    -0.79400
O117        O  0.86047466  0.07479473  0.99632474    -0.82100
O118        O  0.05929668  0.00291327  0.08193011    -0.77800
O119        O  0.06442068  0.99898902  0.92022249    -0.77900
O120        O  0.91546382  0.99889472  0.91840170    -0.77500
O121        O  0.91133876  0.00118276  0.07993143    -0.81000
O122        O  0.98590964  0.13253252  0.04450502    -0.80400
O123        O  0.98552397  0.13010048  0.95298410    -0.78800
Eu124      Eu  0.98588990  0.00156687  0.05829296     2.39800
Eu125      Eu  0.98922620  0.99922464  0.94174294     2.39600
Eu126      Eu  0.07674625  0.00090338  0.00130704     2.38400
Eu127      Eu  0.89780492  0.99995368  0.99892264     2.39900
Eu128      Eu  0.98701427  0.09295244  0.99919421     2.39800
O129        O  0.94335876  0.04559663  0.97021291    -0.93200
O130        O  0.03100198  0.04758119  0.02919250    -0.92100
C131        C  0.98615782  0.12137312  0.07080978     1.02000
C132        C  0.98432089  0.11773204  0.92685986     1.00700
C133        C  0.10030585  0.00339539  0.07354117     1.00100
C134        C  0.87065254  0.00031330  0.07089329     1.02100
C135        C  0.87423568  0.99836029  0.92640070     1.01000
C136        C  0.10488472  0.99891012  0.92981182     0.99900
C137        C  0.10103156  0.11829710  0.00252395     0.99900
C138        C  0.87288522  0.11722061  0.99553580     1.02500
H139        H  0.05237097  0.06619163  0.95955462     0.29900
O140        O  0.03340866  0.04689311  0.97096841    -1.05300
H141        H  0.92205100  0.06697878  0.03939554     0.32000
O142        O  0.94125829  0.04746348  0.02827636    -1.07900
N143        N  0.48773846  0.43108307  0.98824461    -0.36900
N144        N  0.41964870  0.50124489  0.99451450    -0.57500
N145        N  0.48770724  0.57202823  0.99553055    -0.36900
N146        N  0.55596835  0.50196387  0.99282295    -0.57500
C147        C  0.45172098  0.40476053  0.99411448     0.26600
C148        C  0.52443930  0.40523394  0.99311792     0.26600
C149        C  0.45166045  0.59610720  0.00398347     0.26600
C150        C  0.52404511  0.59641715  0.00324575     0.26600
C151        C  0.39385092  0.46484003  0.98767161     0.35300
C152        C  0.39397936  0.53895897  0.99096260     0.35300
C153        C  0.58134668  0.46582608  0.98503684     0.35300
C154        C  0.58116029  0.53985012  0.98873078     0.35300
C155        C  0.46570305  0.36141528  0.00245175    -0.22200
C156        C  0.51158955  0.36171654  0.00182779    -0.22200
C157        C  0.46516827  0.63635048  0.01716277    -0.22200
C158        C  0.51099562  0.63653219  0.01671456    -0.22200
C159        C  0.35173194  0.47950039  0.97962787    -0.23300
C160        C  0.35184268  0.52652950  0.98166627    -0.23300
C161        C  0.62269834  0.48083205  0.97579772    -0.23300
C162        C  0.62257439  0.52781945  0.97814443    -0.23300
C163        C  0.40666752  0.41846625  0.99100537    -0.18600
C164        C  0.56904007  0.41937854  0.98858857    -0.18600
C165        C  0.56840908  0.58464749  0.99669202    -0.18600
C166        C  0.40703443  0.58398091  0.99833405    -0.18600
H167        H  0.44507144  0.33250661  0.00838475     0.14300
H168        H  0.53298827  0.33307368  0.00717827     0.14300
H169        H  0.44419602  0.66300357  0.02595184     0.14300
H170        H  0.53224042  0.66335638  0.02509079     0.14300
H171        H  0.32370930  0.45845294  0.97325424     0.12600
H172        H  0.32391699  0.54894672  0.97721503     0.12600
H173        H  0.65026524  0.46004163  0.96846296     0.12600
H174        H  0.64999852  0.55046881  0.97300051     0.12600
H175        H  0.48725651  0.46328188  0.97878266     0.25800
H176        H  0.48739145  0.54351603  0.98228626     0.25800
C177        C  0.04956670  0.50357135  0.27342942     0.86200
C178        C  0.04770546  0.46442738  0.25190428    -0.54100
C179        C  0.00940869  0.46255839  0.23629676     0.09100
C180        C  0.97592413  0.50113833  0.24371496     0.20000
C181        C  0.04078922  0.54717900  0.25595188    -0.54800
C182        C  0.00232213  0.54632658  0.24055468     0.09200
C183        C  0.00714244  0.49773253  0.29121363    -0.54300
C184        C  0.96842460  0.49647194  0.27581242     0.09700
H185        H  0.07424407  0.43924002  0.25002311     0.14300
H186        H  0.94477642  0.50015730  0.23107514     0.00000
H187        H  0.06252690  0.57667513  0.25517068     0.14600
H188        H  0.00782765  0.49567298  0.31408437     0.14400
C189        C  0.44523998  0.99634639  0.22555403     0.86200
C190        C  0.44998128  0.95555987  0.24566789    -0.54100
C191        C  0.48833685  0.95543279  0.26120952     0.09100
C192        C  0.51897675  0.99695479  0.25520308     0.20000
C193        C  0.45092740  0.03893498  0.24415451    -0.54800
C194        C  0.48929360  0.03964543  0.25965702     0.09200
C195        C  0.48815279  0.99536000  0.20763218    -0.54300
C196        C  0.52688014  0.99622826  0.22302702     0.09700
H197        H  0.42498632  0.92867151  0.24729449     0.14300
H198        H  0.54988630  0.99755962  0.26808326     0.00000
H199        H  0.42632015  0.06628923  0.24501724     0.14600
H200        H  0.48871404  0.99480052  0.18486640     0.14400
C201        C  0.04632366  0.49794381  0.72541837     0.86200
C202        C  0.04520118  0.53747270  0.74673617    -0.54100
C203        C  0.00799951  0.53854519  0.76328817     0.09100
C204        C  0.97492207  0.49912027  0.75713879     0.20000
C205        C  0.03989397  0.45450133  0.74308848    -0.54800
C206        C  0.00262229  0.45442763  0.75967160     0.09200
C207        C  0.00219639  0.50236225  0.70886303    -0.54300
C208        C  0.96476377  0.50332917  0.72536017     0.09700
H209        H  0.07123941  0.56335151  0.74797927     0.14300
H210        H  0.94482510  0.50006636  0.77067800     0.00000
H211        H  0.06356291  0.42630691  0.74258341     0.14600
H212        H  0.99978604  0.50266773  0.68612647     0.14400
C213        C  0.45030334  0.99437099  0.77525809     0.86200
C214        C  0.45127001  0.03546411  0.75502020    -0.54100
C215        C  0.48792180  0.03711806  0.73795471     0.09100
C216        C  0.52046233  0.99664768  0.74245388     0.20000
C217        C  0.45536848  0.95209991  0.75632905    -0.54800
C218        C  0.49165755  0.95276904  0.73888852     0.09200
C219        C  0.49510894  0.99712826  0.79118969    -0.54300
C220        C  0.53188893  0.99873960  0.77416409     0.09700
H221        H  0.42567337  0.06187125  0.75490962     0.14300
H222        H  0.54986877  0.99817693  0.72833289     0.00000
H223        H  0.43219589  0.92349878  0.75729335     0.14600
H224        H  0.49847456  0.99695977  0.81386880     0.14400
C225        C  0.13621838  0.00443549  0.09499297    -0.03700
C226        C  0.12694348  0.01415328  0.12347373    -0.09500
C227        C  0.16140704  0.01515311  0.14342329    -0.17100
C228        C  0.20531931  0.00623844  0.13511876     0.25000
C229        C  0.21485479  0.99683916  0.10685462    -0.18800
C230        C  0.18064551  0.99596032  0.08692555    -0.07700
C231        C  0.24093651  0.00571061  0.15537488    -0.14100
C232        C  0.27376519  0.00369511  0.16995150    -0.13900
C233        C  0.31609997  0.00040500  0.18396513     0.24900
C234        C  0.35455191  0.99442738  0.16781100    -0.19300
C235        C  0.39631108  0.99236946  0.18074759    -0.07700
C236        C  0.40038768  0.99639480  0.21029028    -0.03800
C237        C  0.36103798  0.00106239  0.22637981    -0.09100
C238        C  0.31926491  0.00333391  0.21331454    -0.16800
H239        H  0.09318430  0.02115299  0.13030398     0.11400
H240        H  0.15379454  0.02260242  0.16528675     0.10700
H241        H  0.24876635  0.98987853  0.10023377     0.10600
H242        H  0.18904845  0.98823321  0.06522152     0.11100
H243        H  0.35228619  0.99159339  0.14504939     0.11200
H244        H  0.42464028  0.98746288  0.16717723     0.11200
H245        H  0.36281606  0.00366966  0.24915466     0.11300
H246        H  0.28959762  0.00764865  0.22605365     0.10100
C247        C  0.83434266  0.00000392  0.09213325    -0.03700
C248        C  0.78971011  0.99345976  0.08373838    -0.09500
C249        C  0.75545992  0.99344172  0.10368823    -0.17100
C250        C  0.76516630  0.00001101  0.13229979     0.25000
C251        C  0.80936943  0.00653328  0.14091279    -0.18800
C252        C  0.84376308  0.00644952  0.12099577    -0.07700
C253        C  0.72944552  0.00058397  0.15256398    -0.14100
C254        C  0.69714355  0.00133609  0.16768354    -0.13900
C255        C  0.65549269  0.00247347  0.18274017     0.24900
C256        C  0.65128811  0.98208286  0.20935146    -0.19300
C257        C  0.60967740  0.98069450  0.22273864    -0.07700
C258        C  0.57172196  0.99945049  0.20958503    -0.03800
C259        C  0.57683561  0.02127087  0.18324883    -0.09100
C260        C  0.61828978  0.02254520  0.16994313    -0.16800
H261        H  0.78116690  0.98826219  0.06175649     0.11400
H262        H  0.72133922  0.98842136  0.09677227     0.10700
H263        H  0.81724907  0.01181067  0.16299521     0.10600
H264        H  0.87766014  0.01174663  0.12820564     0.11100
H265        H  0.67992720  0.96651265  0.21950592     0.11200
H266        H  0.60717485  0.96382285  0.24296908     0.11200
H267        H  0.54888792  0.03756493  0.17282525     0.11300
H268        H  0.62119731  0.03874443  0.14944969     0.10100
C269        C  0.97967798  0.84436691  0.09376443    -0.03700
C270        C  0.97676451  0.85326740  0.12290817    -0.09500
C271        C  0.97331268  0.81693952  0.14226814    -0.17100
C272        C  0.97263379  0.77126544  0.13279828     0.25000
C273        C  0.97548038  0.76215005  0.10390662    -0.18800
C274        C  0.97894348  0.79821002  0.08458996    -0.07700
C275        C  0.97012136  0.73348463  0.15251718    -0.14100
C276        C  0.96997322  0.70090171  0.16833781    -0.13900
C277        C  0.97333332  0.66224521  0.18734034     0.24900
C278        C  0.96169799  0.61778357  0.17848765    -0.19300
C279        C  0.96911598  0.57996121  0.19625801    -0.07700
C280        C  0.98856801  0.58626437  0.22296906    -0.03800
C281        C  0.99814871  0.63128305  0.23210632    -0.09100
C282        C  0.99080583  0.66883636  0.21439943    -0.16800
H283        H  0.97714400  0.88820949  0.13075151     0.11400
H284        H  0.97130026  0.82448357  0.16461338     0.10700
H285        H  0.97516850  0.72705116  0.09626348     0.10600
H286        H  0.98102873  0.78972920  0.06238394     0.11100
H287        H  0.94810900  0.61220450  0.15757273     0.11200
H288        H  0.96155128  0.54575906  0.18863084     0.11200
H289        H  0.01215984  0.63747782  0.25283354     0.11300
H290        H  0.99975626  0.70295999  0.22160419     0.10100
C291        C  0.98526791  0.16002581  0.09137763    -0.03700
C292        C  0.97883774  0.20538005  0.08170955    -0.09500
C293        C  0.97721395  0.24213992  0.10061948    -0.17100
C294        C  0.98210054  0.23450847  0.12955681     0.25000
C295        C  0.98888397  0.18967077  0.13949600    -0.18800
C296        C  0.99039071  0.15261384  0.12054721    -0.07700
C297        C  0.98125914  0.27311104  0.14869981    -0.14100
C298        C  0.98251049  0.30684588  0.16356129    -0.13900
C299        C  0.98805910  0.34757891  0.18061287     0.24900
C300        C  0.03062063  0.36646106  0.18380863    -0.19300
C301        C  0.03713907  0.40481581  0.20102448    -0.07700
C302        C  0.00117605  0.42489805  0.21560682    -0.03800
C303        C  0.95819303  0.40659097  0.21166735    -0.09100
C304        C  0.95169134  0.36811256  0.19426075    -0.16800
H305        H  0.97474380  0.21264076  0.05945229     0.11400
H306        H  0.97220928  0.27662453  0.09261835     0.10700
H307        H  0.99307175  0.18335815  0.16186388     0.10600
H308        H  0.99565531  0.11830581  0.12870716     0.11100
H309        H  0.05897383  0.35120281  0.17319943     0.11200
H310        H  0.07054856  0.41850902  0.20305492     0.11200
H311        H  0.92990788  0.42087813  0.22278504     0.11300
H312        H  0.91850766  0.35391204  0.19187029     0.10100
C313        C  0.13823852  0.84860542  0.00458007    -0.03700
C314        C  0.18324871  0.86110851  0.00106515    -0.09500
C315        C  0.21685016  0.82797926  0.00232126    -0.17100
C316        C  0.20608051  0.78196507  0.00721151     0.25000
C317        C  0.16151870  0.76906769  0.01091900    -0.18800
C318        C  0.12775374  0.80215586  0.00959208    -0.07700
C319        C  0.24087178  0.74807413  0.00778641    -0.14100
C320        C  0.27066389  0.72037473  0.00735461    -0.13900
C321        C  0.30594759  0.68714120  0.00583567     0.24900
C322        C  0.30603578  0.64939626  0.02409992    -0.19300
C323        C  0.33913851  0.61589337  0.02176263    -0.07700
C324        C  0.37233803  0.61988979  0.00108906    -0.03800
C325        C  0.37262581  0.65824463  0.98315587    -0.09100
C326        C  0.33949907  0.69175289  0.98552133    -0.16800
H327        H  0.19256412  0.89646133  0.99711663     0.11400
H328        H  0.25125369  0.83824320  0.99933326     0.10700
H329        H  0.15286226  0.73346426  0.01470211     0.10600
H330        H  0.09352306  0.79137306  0.01255839     0.11100
H331        H  0.28028333  0.64564084  0.03992999     0.11200
H332        H  0.33880693  0.58670613  0.03591965     0.11200
H333        H  0.39821335  0.66188107  0.96721214     0.11300
H334        H  0.33973887  0.72092096  0.97133720     0.10100
C335        C  0.83912533  0.84692660  0.00302729    -0.03700
C336        C  0.79400214  0.86025168  0.00219277    -0.09500
C337        C  0.76022243  0.82741291  0.00289961    -0.17100
C338        C  0.77090208  0.78081918  0.00453794     0.25000
C339        C  0.81557997  0.76699294  0.00566490    -0.18800
C340        C  0.84959005  0.79986675  0.00494060    -0.07700
C341        C  0.73572263  0.74746640  0.00469336    -0.14100
C342        C  0.70542762  0.72041203  0.00432835    -0.13900
C343        C  0.66981754  0.68759295  0.00330027     0.24900
C344        C  0.63482328  0.69316649  0.98400387    -0.19300
C345        C  0.60157749  0.65972290  0.98192476    -0.07700
C346        C  0.60317599  0.62055337  0.99916239    -0.03800
C347        C  0.63779031  0.61570017  0.01889997    -0.09100
C348        C  0.67100493  0.64911262  0.02093775    -0.16800
H349        H  0.78463196  0.89610433  0.00082260     0.11400
H350        H  0.72571659  0.83838894  0.00203221     0.10700
H351        H  0.82410035  0.73088373  0.00696915     0.10600
H352        H  0.88393081  0.78843713  0.00576280     0.11100
H353        H  0.63360114  0.72295913  0.97033677     0.11200
H354        H  0.57489106  0.66402775  0.96672043     0.11200
H355        H  0.63915792  0.58588896  0.03253430     0.11300
H356        H  0.69788962  0.64466866  0.03599355     0.10100
C357        C  0.83759981  0.15276891  0.99332377    -0.03700
C358        C  0.79221798  0.14034777  0.99420452    -0.09500
C359        C  0.75896508  0.17388617  0.99261065    -0.17100
C360        C  0.77051509  0.22024568  0.99003822     0.25000
C361        C  0.81544809  0.23295120  0.98868460    -0.18800
C362        C  0.84880188  0.19949599  0.99031645    -0.07700
C363        C  0.73629172  0.25483175  0.98934160    -0.14100
C364        C  0.70751745  0.28371916  0.98913836    -0.13900
C365        C  0.67289393  0.31788449  0.98896679     0.24900
C366        C  0.67344176  0.35361792  0.00875830    -0.19300
C367        C  0.63954192  0.38655368  0.00869225    -0.07700
C368        C  0.60489598  0.38416063  0.98872272    -0.03800
C369        C  0.60464109  0.34834724  0.96887018    -0.09100
C370        C  0.63843717  0.31529751  0.96905358    -0.16800
H371        H  0.78231507  0.10475469  0.99637974     0.11400
H372        H  0.72425520  0.16367957  0.99361362     0.10700
H373        H  0.82472169  0.26876231  0.98659278     0.10600
H374        H  0.88331711  0.21029668  0.98933257     0.11100
H375        H  0.69995676  0.35593461  0.02425560     0.11200
H376        H  0.64022364  0.41391586  0.02419393     0.11200
H377        H  0.57828983  0.34608929  0.95327071     0.11300
H378        H  0.63772480  0.28776187  0.95366563     0.10100
C379        C  0.37091574  0.38314868  0.99294984    -0.03700
C380        C  0.33856715  0.38625929  0.01428822    -0.09500
C381        C  0.30452895  0.35363609  0.01611536    -0.17100
C382        C  0.30254080  0.31740659  0.99673426     0.25000
C383        C  0.33473694  0.31396732  0.97544678    -0.18800
C384        C  0.36875463  0.34673617  0.97352082    -0.07700
C385        C  0.26750631  0.28379213  0.99879939    -0.14100
C386        C  0.23820620  0.25559870  0.00063727    -0.13900
C387        C  0.20372038  0.22135308  0.00239413     0.24900
C388        C  0.21504058  0.17476293  0.00222112    -0.19300
C389        C  0.18167582  0.14129689  0.00279442    -0.07700
C390        C  0.13634705  0.15397169  0.00342213    -0.03800
C391        C  0.12533717  0.20098405  0.00421926    -0.09100
C392        C  0.15884823  0.23441821  0.00368251    -0.16800
H393        H  0.33973774  0.41403185  0.02949862     0.11400
H394        H  0.27981146  0.35663158  0.03265773     0.10700
H395        H  0.33349318  0.28604304  0.96033786     0.10600
H396        H  0.39329843  0.34385891  0.95688039     0.11100
H397        H  0.24967725  0.16427477  0.00130592     0.11200
H398        H  0.19146738  0.10550083  0.00229420     0.11200
H399        H  0.09086593  0.21198948  0.00492578     0.11300
H400        H  0.14973959  0.27043413  0.00393971     0.10100
C401        C  0.57791996  0.00288828  0.78582119    -0.03700
C402        C  0.58532984  0.02696179  0.81117942    -0.09500
C403        C  0.62748568  0.02764279  0.82367791    -0.17100
C404        C  0.66311757  0.00456499  0.81105291     0.25000
C405        C  0.65673289  0.98220347  0.78516929    -0.18800
C406        C  0.61440104  0.98159138  0.77254793    -0.07700
C407        C  0.70503800  0.00188472  0.82590212    -0.14100
C408        C  0.73702689  0.00010128  0.84137319    -0.13900
C409        C  0.77178452  0.99875483  0.86244047     0.24900
C410        C  0.81671235  0.00178315  0.85472511    -0.19300
C411        C  0.85008874  0.00141936  0.87545219    -0.07700
C412        C  0.83897504  0.99809304  0.90425553    -0.03800
C413        C  0.79361424  0.99490220  0.91172184    -0.09100
C414        C  0.76038766  0.99521132  0.89097863    -0.16800
H415        H  0.55843398  0.04500603  0.82159663     0.11400
H416        H  0.63204528  0.04536705  0.84359244     0.10700
H417        H  0.68410431  0.96428487  0.77512687     0.10600
H418        H  0.61008213  0.96304569  0.75303053     0.11100
H419        H  0.82595595  0.00465828  0.83271395     0.11200
H420        H  0.88455897  0.00404234  0.86889702     0.11200
H421        H  0.78367412  0.99225898  0.93361117     0.11300
H422        H  0.72571841  0.99291918  0.89723224     0.10100
C423        C  0.14249556  0.99718783  0.90955138    -0.03700
C424        C  0.13508476  0.99573919  0.88023914    -0.09500
C425        C  0.17110907  0.99261540  0.86155786    -0.17100
C426        C  0.21484196  0.99090621  0.87194134     0.25000
C427        C  0.22250926  0.99269032  0.90100331    -0.18800
C428        C  0.18673996  0.99586942  0.91965593    -0.07700
C429        C  0.25218579  0.98812871  0.85299791    -0.14100
C430        C  0.28522000  0.98719447  0.83854960    -0.13900
C431        C  0.32634299  0.98808933  0.82294312     0.24900
C432        C  0.36679706  0.99243437  0.83736356    -0.19300
C433        C  0.40695519  0.99473301  0.82252271    -0.07700
C434        C  0.40744984  0.99258982  0.79274588    -0.03800
C435        C  0.36622668  0.98835102  0.77853971    -0.09100
C436        C  0.32610472  0.98599835  0.79348588    -0.16800
H437        H  0.10155454  0.99676054  0.87175023     0.11400
H438        H  0.16486017  0.99147685  0.83905031     0.10700
H439        H  0.25620837  0.99159776  0.90927924     0.10600
H440        H  0.19390789  0.99697523  0.94204780     0.11100
H441        H  0.36731446  0.99437214  0.86019891     0.11200
H442        H  0.43687673  0.99848183  0.83486932     0.11200
H443        H  0.36518784  0.98675717  0.75571457     0.11300
H444        H  0.29493446  0.98281406  0.78205473     0.10100
C445        C  0.99069697  0.41406706  0.77747593    -0.03700
C446        C  0.00367347  0.36954535  0.76911764    -0.09500
C447        C  0.99657082  0.33186164  0.78668689    -0.17100
C448        C  0.97573819  0.33766041  0.81276002     0.25000
C449        C  0.96095563  0.38143643  0.82089026    -0.18800
C450        C  0.96831521  0.41947641  0.80331723    -0.07700
C451        C  0.97183689  0.29884853  0.83148609    -0.14100
C452        C  0.97177459  0.26601830  0.84704728    -0.13900
C453        C  0.97444552  0.22828510  0.86669182     0.24900
C454        C  0.98512342  0.23720745  0.89486465    -0.19300
C455        C  0.98844715  0.20121094  0.91418664    -0.07700
C456        C  0.98141362  0.15534140  0.90568207    -0.03800
C457        C  0.97074852  0.14656042  0.87723188    -0.09100
C458        C  0.96727947  0.18286747  0.85786598    -0.16800
H459        H  0.01971148  0.36364780  0.74901084     0.11400
H460        H  0.00798201  0.29821459  0.78007625     0.10700
H461        H  0.94474425  0.38634323  0.84107318     0.10600
H462        H  0.95800278  0.45316235  0.81044515     0.11100
H463        H  0.99095840  0.27211182  0.90194099     0.11200
H464        H  0.99676263  0.20945277  0.93584956     0.11200
H465        H  0.96474965  0.11179714  0.87001319     0.11300
H466        H  0.95905106  0.17552349  0.83605839     0.10100
C467        C  0.99992602  0.57656836  0.78354900    -0.03700
C468        C  0.95848455  0.59907098  0.78441287    -0.09500
C469        C  0.95276923  0.63834302  0.80123313    -0.17100
C470        C  0.98827965  0.65515300  0.81756984     0.25000
C471        C  0.02916307  0.63196090  0.81738213    -0.18800
C472        C  0.03501712  0.59310592  0.80044282    -0.07700
C473        C  0.98346631  0.69630138  0.83439918    -0.14100
C474        C  0.98214241  0.72998190  0.84934621    -0.13900
C475        C  0.98252181  0.76834044  0.86875063     0.24900
C476        C  0.97102747  0.76125670  0.89699190    -0.19300
C477        C  0.97296804  0.79752093  0.91630683    -0.07700
C478        C  0.98629348  0.84179087  0.90772107    -0.03800
C479        C  0.99741686  0.84880451  0.87920582    -0.09100
C480        C  0.99571222  0.81224791  0.85989016    -0.16800
H481        H  0.93113690  0.58733599  0.77129927     0.11400
H482        H  0.92093919  0.65593372  0.80117649     0.10700
H483        H  0.05680499  0.64433650  0.83003301     0.10600
H484        H  0.06719242  0.57620829  0.80027539     0.11100
H485        H  0.96084368  0.72752222  0.90417051     0.11200
H486        H  0.96378929  0.79083362  0.93800537     0.11200
H487        H  0.00794462  0.88233174  0.87191454     0.11300
H488        H  0.00496192  0.81816645  0.83811347     0.10100
C489        C  0.91909753  0.50675305  0.71310519    -0.03700
C490        C  0.91226682  0.53067163  0.68766334    -0.09500
C491        C  0.87062472  0.53062028  0.67452974    -0.17100
C492        C  0.83484839  0.50719028  0.68668532     0.25000
C493        C  0.84062160  0.48474701  0.71258843    -0.18800
C494        C  0.88254594  0.48457597  0.72578388    -0.07700
C495        C  0.79329013  0.50461532  0.67147859    -0.14100
C496        C  0.76128244  0.50288755  0.65605221    -0.13900
C497        C  0.72598077  0.50093038  0.63542682     0.24900
C498        C  0.68200286  0.51119541  0.64298234    -0.19300
C499        C  0.64801157  0.50951398  0.62271196    -0.07700
C500        C  0.65767507  0.49781998  0.59453506    -0.03800
C501        C  0.70207033  0.48765276  0.58719499    -0.09100
C502        C  0.73588500  0.48915031  0.60750152    -0.16800
H503        H  0.93924876  0.54916931  0.67766291     0.11400
H504        H  0.86654362  0.54826079  0.65456547     0.10700
H505        H  0.81310739  0.46645715  0.72219887     0.10600
H506        H  0.88664869  0.46562658  0.74524982     0.11100
H507        H  0.67399687  0.52059407  0.66450556     0.11200
H508        H  0.61429072  0.51783456  0.62904762     0.11200
H509        H  0.71073152  0.47837406  0.56576357     0.11300
H510        H  0.76982580  0.48121271  0.60139016     0.10100
C511        C  0.35484800  0.49834331  0.59166396    -0.03700
C512        C  0.36289078  0.49229000  0.62069464    -0.09500
C513        C  0.32730498  0.49020962  0.63978390    -0.17100
C514        C  0.28330161  0.49431043  0.63014231     0.25000
C515        C  0.27500726  0.50043462  0.60135112    -0.18800
C516        C  0.31037797  0.50246534  0.58227359    -0.07700
C517        C  0.24640426  0.49288680  0.64957758    -0.14100
C518        C  0.21350184  0.49283403  0.66421039    -0.13900
C519        C  0.17196748  0.49408270  0.67945377     0.24900
C520        C  0.13234881  0.50297679  0.66488241    -0.19300
C521        C  0.09169337  0.50454073  0.67920870    -0.07700
C522        C  0.08981717  0.49700344  0.70860211    -0.03800
C523        C  0.13024046  0.48882233  0.72307243    -0.09100
C524        C  0.17086455  0.48707844  0.70862476    -0.16800
H525        H  0.39658940  0.48874536  0.62863772     0.11400
H526        H  0.33411658  0.48539909  0.66203855     0.10700
H527        H  0.24112041  0.50366976  0.59361681     0.10600
H528        H  0.30274488  0.50713695  0.56012043     0.11100
H529        H  0.13287960  0.50894142  0.64231886     0.11200
H530        H  0.06249859  0.51238015  0.66687385     0.11200
H531        H  0.13025479  0.48349457  0.74568718     0.11300
H532        H  0.20134950  0.48040269  0.72021638     0.10100
C533        C  0.51108910  0.34041001  0.59434709    -0.03700
C534        C  0.51276541  0.29414126  0.58554082    -0.09500
C535        C  0.51507189  0.25852525  0.60521045    -0.17100
C536        C  0.51581581  0.26819960  0.63409422     0.25000
C537        C  0.51431196  0.31403725  0.64321224    -0.18800
C538        C  0.51203452  0.34994132  0.62348450    -0.07700
C539        C  0.51667736  0.23062937  0.65401842    -0.14100
C540        C  0.51509341  0.19708442  0.66903319    -0.13900
C541        C  0.50939084  0.15582318  0.68560955     0.24900
C542        C  0.46772279  0.13415642  0.68613508    -0.19300
C543        C  0.46110856  0.09494151  0.70261976    -0.07700
C544        C  0.49623567  0.07641698  0.71865465    -0.03800
C545        C  0.53836983  0.09754962  0.71753406    -0.09100
C546        C  0.54484928  0.13720206  0.70120037    -0.16800
H547        H  0.51224165  0.28522418  0.56335901     0.11400
H548        H  0.51602313  0.22328619  0.59783941     0.10700
H549        H  0.51466999  0.32202191  0.66553712     0.10600
H550        H  0.51089716  0.38503440  0.63104046     0.11100
H551        H  0.44011164  0.14791030  0.67402334     0.11200
H552        H  0.42841517  0.07914348  0.70296143     0.11200
H553        H  0.56581541  0.08428361  0.72998026     0.11300
H554        H  0.57729256  0.15356375  0.70097605     0.10100
C555        C  0.50140951  0.91389610  0.71917249    -0.03700
C556        C  0.54541001  0.90174753  0.71204015    -0.09500
C557        C  0.55392145  0.86311200  0.69509506    -0.17100
C558        C  0.51850872  0.83630542  0.68490168     0.25000
C559        C  0.47472565  0.84873965  0.69141531    -0.18800
C560        C  0.46620899  0.88715015  0.70821512    -0.07700
C561        C  0.52610594  0.79649776  0.66728872    -0.14100
C562        C  0.52778348  0.76350917  0.65177957    -0.13900
C563        C  0.52595350  0.72559435  0.63206379     0.24900
C564        C  0.51159571  0.68200560  0.64076555    -0.19300
C565        C  0.50765922  0.64604505  0.62116795    -0.07700
C566        C  0.51764452  0.65332544  0.59249226    -0.03800
C567        C  0.53221958  0.69724138  0.58405893    -0.09100
C568        C  0.53640395  0.73293267  0.60367185    -0.16800
H569        H  0.57330096  0.92131903  0.71993733     0.11400
H570        H  0.58803818  0.85407655  0.69007496     0.10700
H571        H  0.44697343  0.82869435  0.68343620     0.10600
H572        H  0.43180952  0.89591659  0.71245705     0.11100
H573        H  0.50304097  0.67591505  0.66264068     0.11200
H574        H  0.49626922  0.61277656  0.62838731     0.11200
H575        H  0.54061858  0.70407383  0.56225094     0.11300
H576        H  0.54738376  0.76645762  0.59659933     0.10100
C577        C  0.88973887  0.11172096  0.49564086    -0.03700
C578        C  0.85760359  0.11131319  0.51712448    -0.09500
C579        C  0.82445588  0.14497408  0.51791958    -0.17100
C580        C  0.82318700  0.17927170  0.49725828     0.25000
C581        C  0.85517297  0.17985323  0.47577267    -0.18800
C582        C  0.88839835  0.14621065  0.47497526    -0.07700
C583        C  0.78880708  0.21357967  0.49799903    -0.14100
C584        C  0.75962885  0.24195847  0.49848610    -0.13900
C585        C  0.72476075  0.27574906  0.49877111     0.24900
C586        C  0.68027616  0.26223219  0.50203493    -0.19300
C587        C  0.64632110  0.29513917  0.50222242    -0.07700
C588        C  0.65658146  0.34201608  0.49923425    -0.03800
C589        C  0.70150695  0.35514390  0.49582845    -0.09100
C590        C  0.73529492  0.32220881  0.49560021    -0.16800
H591        H  0.85837431  0.08501087  0.53326808     0.11400
H592        H  0.79983819  0.14425610  0.53461391     0.10700
H593        H  0.85439417  0.20623850  0.45967072     0.10600
H594        H  0.91300572  0.14692833  0.45828293     0.11100
H595        H  0.67184466  0.22626031  0.50445604     0.11200
H596        H  0.61216866  0.28389649  0.50488520     0.11200
H597        H  0.71067445  0.39088699  0.49328818     0.11300
H598        H  0.76962281  0.33298854  0.49295672     0.10100
C599        C  0.35344804  0.34812021  0.50197890    -0.03700
C600        C  0.30873632  0.36314459  0.50074394    -0.09500
C601        C  0.27368608  0.33149440  0.50037191    -0.17100
C602        C  0.28270202  0.28440950  0.50131048     0.25000
C603        C  0.32687540  0.26906754  0.50274336    -0.18800
C604        C  0.36204065  0.30064510  0.50309418    -0.07700
C605        C  0.24678825  0.25168372  0.50073309    -0.14100
C606        C  0.21777819  0.22306254  0.50020733    -0.13900
C607        C  0.18452166  0.18752191  0.49949365     0.24900
C608        C  0.15034740  0.18889200  0.47934939    -0.19300
C609        C  0.11874311  0.15366933  0.47822367    -0.07700
C610        C  0.12098585  0.11686559  0.49731317    -0.03800
C611        C  0.15518820  0.11578960  0.51757415    -0.09100
C612        C  0.18688546  0.15093281  0.51859832    -0.16800
H613        H  0.30071985  0.39938808  0.49987550     0.11400
H614        H  0.23960678  0.34375153  0.49926846     0.10700
H615        H  0.33416166  0.23263157  0.50350057     0.10600
H616        H  0.39590251  0.28784525  0.50409902     0.11100
H617        H  0.14829225  0.21700692  0.46444127     0.11200
H618        H  0.09256071  0.15497020  0.46246794     0.11200
H619        H  0.15726860  0.08773398  0.53251577     0.11300
H620        H  0.21328118  0.14952381  0.53421444     0.10100
C621        C  0.36184953  0.65042486  0.49440902    -0.03700
C622        C  0.37274648  0.69694739  0.49021795    -0.09500
C623        C  0.33909613  0.73006067  0.48836793    -0.17100
C624        C  0.29431785  0.71704158  0.49069894     0.25000
C625        C  0.28321771  0.67099083  0.49504675    -0.18800
C626        C  0.31667340  0.63787801  0.49685255    -0.07700
C627        C  0.25955044  0.75080036  0.48899305    -0.14100
C628        C  0.22979110  0.77851424  0.48843901    -0.13900
C629        C  0.19468225  0.81200763  0.48921222     0.24900
C630        C  0.15862179  0.80907915  0.47047408    -0.19300
C631        C  0.12475005  0.84207645  0.47136973    -0.07700
C632        C  0.12662839  0.87807563  0.49112532    -0.03800
C633        C  0.16256618  0.88027799  0.51012206    -0.09100
C634        C  0.19652564  0.84756693  0.50904092    -0.16800
H635        H  0.40715474  0.70773980  0.48822429     0.11400
H636        H  0.34797510  0.76574125  0.48510932     0.10700
H637        H  0.24865239  0.66065313  0.49704081     0.10600
H638        H  0.30704477  0.60245399  0.50023240     0.11100
H639        H  0.15679630  0.78148916  0.45515599     0.11200
H640        H  0.09719268  0.83974744  0.45663014     0.11200
H641        H  0.16436898  0.90752555  0.52566040     0.11300
H642        H  0.22420850  0.84997389  0.52369385     0.10100
C643        C  0.89483196  0.87382796  0.49777540    -0.03700
C644        C  0.89392738  0.83862850  0.47753208    -0.09500
C645        C  0.86067820  0.80507644  0.47843318    -0.17100
C646        C  0.82816093  0.80653368  0.49956257     0.25000
C647        C  0.82909232  0.84136967  0.51991600    -0.18800
C648        C  0.86237000  0.87486861  0.51907739    -0.07700
C649        C  0.79359464  0.77252925  0.50025598    -0.14100
C650        C  0.76433470  0.74430822  0.50083300    -0.13900
C651        C  0.72934872  0.71076033  0.50129004     0.24900
C652        C  0.68550352  0.72420234  0.50700512    -0.19300
C653        C  0.65128347  0.69165774  0.50689482    -0.07700
C654        C  0.66067586  0.64523652  0.50113721    -0.03800
C655        C  0.70500473  0.63206341  0.49571196    -0.09100
C656        C  0.73907856  0.66468743  0.49572809    -0.16800
H657        H  0.91866801  0.83752551  0.46092586     0.11400
H658        H  0.86014456  0.77822934  0.46258776     0.10700
H659        H  0.80401214  0.84273770  0.53632015     0.10600
H660        H  0.86267750  0.90184186  0.53483616     0.11100
H661        H  0.67775183  0.75984557  0.51141708     0.11200
H662        H  0.61758043  0.70282069  0.51137401     0.11200
H663        H  0.71335209  0.59663860  0.49113539     0.11300
H664        H  0.77295939  0.65401794  0.49126851     0.10100
C665        C  0.35754202  0.49275383  0.40679120    -0.03700
C666        C  0.36529644  0.49175780  0.37752717    -0.09500
C667        C  0.32936360  0.49051655  0.35862349    -0.17100
C668        C  0.28556383  0.49011205  0.36883511     0.25000
C669        C  0.27764690  0.49113856  0.39781351    -0.18800
C670        C  0.31323427  0.49237885  0.41664650    -0.07700
C671        C  0.24820773  0.48915555  0.34994055    -0.14100
C672        C  0.21468145  0.48973240  0.33599533    -0.13900
C673        C  0.17364325  0.49326749  0.32057753     0.24900
C674        C  0.14193136  0.45813538  0.32175531    -0.19300
C675        C  0.10173950  0.46245848  0.30698973    -0.07700
C676        C  0.09258992  0.50197134  0.29075804    -0.03800
C677        C  0.12494708  0.53728355  0.29019402    -0.09100
C678        C  0.16495581  0.53281368  0.30495152    -0.16800
H679        H  0.39893848  0.49200586  0.36927472     0.11400
H680        H  0.33570025  0.48990345  0.33613306     0.10700
H681        H  0.24385722  0.49100575  0.40589177     0.10600
H682        H  0.30581691  0.49306868  0.43899319     0.11100
H683        H  0.14828393  0.42741041  0.33400607     0.11200
H684        H  0.07784734  0.43459018  0.30789308     0.11200
H685        H  0.12075352  0.56844102  0.27833901     0.11300
H686        H  0.18926906  0.56033479  0.30410144     0.10100
C687        C  0.92368051  0.49249732  0.28912885    -0.03700
C688        C  0.91772700  0.46526915  0.31333045    -0.09500
C689        C  0.87628691  0.46320227  0.32672249    -0.17100
C690        C  0.84011641  0.48836926  0.31625320     0.25000
C691        C  0.84547366  0.51507689  0.29189475    -0.18800
C692        C  0.88697442  0.51698776  0.27833484    -0.07700
C693        C  0.79843865  0.48803770  0.33147802    -0.14100
C694        C  0.76590023  0.48741610  0.34648645    -0.13900
C695        C  0.72989719  0.48687678  0.36667968     0.24900
C696        C  0.68534855  0.48780845  0.35776825    -0.19300
C697        C  0.65079845  0.48833589  0.37764620    -0.07700
C698        C  0.66035547  0.48801895  0.40677194    -0.03800
C699        C  0.70529990  0.48650243  0.41543339    -0.09100
C700        C  0.73967556  0.48595160  0.39555558    -0.16800
H701        H  0.94515417  0.44553605  0.32193932     0.11400
H702        H  0.87262451  0.44240585  0.34552534     0.10700
H703        H  0.81784174  0.53497025  0.28365925     0.10600
H704        H  0.89066648  0.53870598  0.25995565     0.11100
H705        H  0.67730940  0.48842987  0.33547978     0.11200
H706        H  0.61666691  0.48936187  0.37018090     0.11200
H707        H  0.71405457  0.48604296  0.43760659     0.11300
H708        H  0.77398958  0.48511266  0.40274537     0.10100
C709        C  0.49800422  0.91803854  0.28165077    -0.03700
C710        C  0.53897159  0.89461870  0.28133684    -0.09500
C711        C  0.54525606  0.85538008  0.29814604    -0.17100
C712        C  0.51078095  0.83946743  0.31561327     0.25000
C713        C  0.47064585  0.86394814  0.31679861    -0.18800
C714        C  0.46423410  0.90273742  0.29989925    -0.07700
C715        C  0.51556405  0.79758800  0.33187919    -0.14100
C716        C  0.51682655  0.76332273  0.34638399    -0.13900
C717        C  0.51676535  0.72482767  0.36580217     0.24900
C718        C  0.51003380  0.67956814  0.35640696    -0.19300
C719        C  0.50903224  0.64295979  0.37579992    -0.07700
C720        C  0.51449205  0.65116374  0.40492774    -0.03800
C721        C  0.52148045  0.69682749  0.41394179    -0.09100
C722        C  0.52256987  0.73308664  0.39462756    -0.16800
H723        H  0.56527410  0.90536719  0.26722500     0.11400
H724        H  0.57656421  0.83691830  0.29704603     0.10700
H725        H  0.44382804  0.85242891  0.33034575     0.10600
H726        H  0.43246224  0.92039133  0.30067327     0.11100
H727        H  0.50531673  0.67258713  0.33414847     0.11200
H728        H  0.50355405  0.60842002  0.36803829     0.11200
H729        H  0.52606174  0.70479636  0.43607504     0.11300
H730        H  0.52771774  0.76778418  0.40227499     0.10100
C731        C  0.50734808  0.33622402  0.40802385    -0.03700
C732        C  0.49874480  0.29083761  0.41688733    -0.09500
C733        C  0.50067069  0.25431686  0.39779011    -0.17100
C734        C  0.51124657  0.26238067  0.36952547     0.25000
C735        C  0.51910405  0.30736823  0.36029977    -0.18800
C736        C  0.51709994  0.34410552  0.37939537    -0.07700
C737        C  0.51375402  0.22437143  0.35010980    -0.14100
C738        C  0.51448291  0.19208352  0.33414736    -0.13900
C739        C  0.51240871  0.15407950  0.31473048     0.24900
C740        C  0.49567350  0.16117919  0.28754775    -0.19300
C741        C  0.48999244  0.12407370  0.26926447    -0.07700
C742        C  0.50072419  0.07920442  0.27797717    -0.03800
C743        C  0.51936567  0.07245485  0.30484151    -0.09100
C744        C  0.52494715  0.10977040  0.32322140    -0.16800
H745        H  0.49070593  0.28338095  0.43867036     0.11400
H746        H  0.49415772  0.21971697  0.40513185     0.10700
H747        H  0.52706638  0.31402183  0.33839581     0.10600
H748        H  0.52385079  0.37849611  0.37183906     0.11100
H749        H  0.48606845  0.19528158  0.28068906     0.11200
H750        H  0.47642618  0.13037596  0.24843302     0.11200
H751        H  0.52773160  0.03822656  0.31204824     0.11300
H752        H  0.53793888  0.10391492  0.34425371     0.10100
loop_ 
_geom_bond_atom_site_label_1 
_geom_bond_atom_site_label_2 
_geom_bond_distance 
_geom_bond_site_symmetry_2 
_ccdc_geom_bond_type 
O1           C12   1.297       .  A
O1          Eu37   2.487       .  S
O2           C13   1.297       .  A
O2          Eu36   2.488       .  S
O3           C14   1.293       .  A
O3           Eu9   2.471       .  S
O4           C15   1.295       .  A
O4           Eu9   2.481       .  S
O5           C15   1.288       .  A
O5          Eu39   2.438       .  S
O6           C14   1.287       .  A
O6          Eu38   2.429       .  S
O7           C13   1.290       .  A
O7           Eu9   2.444       .  S
O8           C12   1.290       .  A
O8           Eu9   2.444       .  S
Eu9          O19   2.349       .  S
Eu9          O11   2.353       .  S
Eu9          O10   2.351       .  S
Eu9          O17   2.353       .  S
O10         Eu39   2.345       .  S
O10         Eu36   2.355       .  S
O11         Eu37   2.357       .  S
O11         Eu38   2.347       .  S
C12         C731   1.487       .  S
C13         C533   1.490       .  S
C14         C588   1.480       .  S
C15         C599   1.486       .  S
H16          O17   0.965       .  S
O17         Eu38   2.350       .  S
O17         Eu36   2.361       .  S
H18          O19   0.966       .  S
O19         Eu37   2.363       .  S
O19         Eu39   2.347       .  S
O20          C43   1.295       .  A
O20         Eu36   2.478       .  S
O21          C44   1.298       .  A
O21         Eu37   2.498       .  S
O22          C45   1.292       .  A
O22         Eu38   2.458       .  S
O23          C46   1.289       .  A
O23         Eu39   2.440       .  S
O24          C47   1.287       .  A
O24         Eu39   2.431       .  S
O25          C48   1.292       .  A
O25         Eu38   2.458       .  S
O26          C49   1.290       .  A
O26         Eu40   2.451       .  S
O27          C50   1.291       .  A
O27         Eu40   2.454       .  S
O28          C49   1.289       .  A
O28         Eu38   2.442       .  S
O29          C50   1.288       .  A
O29         Eu39   2.439       .  S
O30          C45   1.292       .  A
O30         Eu36   2.462       .  S
O31          C48   1.293       .  A
O31         Eu37   2.465       .  S
O32          C47   1.293       .  A
O32         Eu37   2.468       .  S
O33          C46   1.295       .  A
O33         Eu36   2.478       .  S
O34          C43   1.292       .  A
O34         Eu40   2.460       .  S
O35          C44   1.292       .  A
O35         Eu40   2.456       .  S
Eu36         O54   2.361       .  S
Eu36         O42   2.359       .  S
Eu37         O41   2.358       .  S
Eu37         O52   2.363       .  S
Eu38         O52   2.347       .  S
Eu38         O42   2.342       .  S
Eu39         O41   2.345       .  S
Eu39         O54   2.345       .  S
Eu40         O41   2.350       .  S
Eu40         O52   2.354       .  S
Eu40         O54   2.354       .  S
Eu40         O42   2.346       .  S
C43         C566   1.489       .  S
C44         C720   1.497       .  S
C45         C500   1.484       .  S
C46         C511   1.486       .  S
C47         C665   1.479       .  S
C48         C698   1.488       .  S
C49         C654   1.477       .  S
C50         C621   1.478       .  S
H51          O52   0.966       .  S
H53          O54   0.966       .  S
N55          C60   1.353   1_455  A
N55          C59   1.353       .  A
N55          H87   1.039       .  S
N56          C63   1.352       .  A
N56          C64   1.351   1_565  A
N57          C62   1.352   1_455  A
N57          C61   1.352       .  A
N57          H88   1.039       .  S
N58          C65   1.350       .  A
N58          C66   1.351   1_565  A
C59          C67   1.387       .  A
C59          C75   1.414       .  A
C60          C76   1.414       .  A
C60          C68   1.387       .  A
C61          C69   1.388       .  A
C61          C78   1.413       .  A
C62          C77   1.411       .  A
C62          C70   1.386       .  A
C63          C75   1.414       .  A
C63          C71   1.387       .  A
C64          C78   1.412       .  A
C64          C72   1.386       .  A
C65          C73   1.387       .  A
C65          C76   1.411       .  A
C66          C74   1.386       .  A
C66          C77   1.410       .  A
C67          C68   1.375   1_455  A
C67          H79   1.082       .  S
C68          H80   1.082       .  S
C69          C70   1.374   1_455  A
C69          H81   1.082       .  S
C70          H82   1.082       .  S
C71          C72   1.371   1_565  A
C71          H83   1.082       .  S
C72          H84   1.082       .  S
C73          C74   1.371   1_565  A
C73          H85   1.082       .  S
C74          H86   1.082       .  S
C75         C632   1.487       .  S
C76         C643   1.482       .  S
C77         C577   1.482       .  S
C78         C610   1.484       .  S
O89         C100   1.296       .  A
O89        Eu125   2.484       .  S
O90         C101   1.298       .  A
O90        Eu124   2.495   1_565  S
O91         C102   1.291       .  A
O91         Eu97   2.461   1_455  S
O92         C103   1.291       .  A
O92         Eu97   2.455       .  S
O93         C103   1.289       .  A
O93        Eu127   2.444   1_554  S
O94         C102   1.290       .  A
O94        Eu126   2.451   1_565  S
O95         C101   1.289       .  A
O95         Eu97   2.441       .  S
O96         C100   1.291       .  A
O96         Eu97   2.449   1_556  S
Eu97        O107   2.353   1_554  S
Eu97         O99   2.349   1_654  S
Eu97         O98   2.348       .  S
Eu97        O105   2.352   1_655  S
O98        Eu127   2.345   1_554  S
O98        Eu124   2.354   1_565  S
O99        Eu125   2.361   1_455  S
O99        Eu126   2.349   1_566  S
C100        C478   1.488       .  S
C101        C269   1.492       .  S
C102        C313   1.483       .  S
C103        C335   1.480       .  S
H104        O105   0.966       .  S
O105       Eu126   2.349   1_565  S
O105       Eu124   2.359   1_465  S
H106        O107   0.966       .  S
O107       Eu125   2.362       .  S
O107       Eu127   2.352       .  S
O108        C131   1.297       .  A
O108       Eu124   2.490       .  S
O109        C132   1.296       .  A
O109       Eu125   2.486   1_545  S
O110        C133   1.289       .  A
O110       Eu126   2.439       .  S
O111        C134   1.292   1_565  A
O111       Eu127   2.456   1_554  S
O112        C135   1.292       .  A
O112       Eu127   2.458       .  S
O113        C136   1.288       .  A
O113       Eu126   2.435   1_566  S
O114        C137   1.292       .  A
O114       Eu128   2.461   1_454  S
O115        C138   1.291       .  A
O115       Eu128   2.457       .  S
O116        C137   1.290       .  A
O116       Eu126   2.448       .  S
O117        C138   1.290       .  A
O117       Eu127   2.452   1_545  S
O118        C133   1.293       .  A
O118       Eu124   2.468   1_455  S
O119        C136   1.295       .  A
O119       Eu125   2.477   1_455  S
O120        C135   1.294       .  A
O120       Eu125   2.471       .  S
O121        C134   1.293       .  A
O121       Eu124   2.462       .  S
O122        C131   1.289       .  A
O122       Eu128   2.437   1_554  S
O123        C132   1.290       .  A
O123       Eu128   2.444       .  S
Eu124       O142   2.366       .  S
Eu124       O130   2.353   1_655  S
Eu125       O129   2.354   1_565  S
Eu125       O140   2.364   1_665  S
Eu126       O140   2.355   1_554  S
Eu126       O130   2.341       .  S
Eu127       O129   2.344   1_565  S
Eu127       O142   2.353   1_566  S
Eu128       O129   2.343       .  S
Eu128       O140   2.351   1_655  S
Eu128       O142   2.355   1_556  S
Eu128       O130   2.346   1_656  S
C131        C291   1.488       .  S
C132        C456   1.488       .  S
C133        C225   1.480       .  S
C134        C247   1.484       .  S
C135        C412   1.488       .  S
C136        C423   1.484       .  S
C137        C390   1.484       .  S
C138        C357   1.484       .  S
H139        O140   0.966       .  S
H141        O142   0.966       .  S
N143        C148   1.353       .  A
N143        C147   1.354       .  A
N143        H175   1.039       .  S
N144        C151   1.351       .  A
N144        C152   1.351       .  A
N145        C150   1.350   1_556  A
N145        C149   1.350   1_556  A
N145        H176   1.040       .  S
N146        C153   1.350       .  A
N146        C154   1.351       .  A
C147        C155   1.387   1_556  A
C147        C163   1.416       .  A
C148        C164   1.416       .  A
C148        C156   1.387   1_556  A
C149        C157   1.387       .  A
C149        C166   1.409   1_554  A
C150        C165   1.409   1_554  A
C150        C158   1.387       .  A
C151        C163   1.412       .  A
C151        C159   1.386       .  A
C152        C166   1.411       .  A
C152        C160   1.385       .  A
C153        C161   1.387       .  A
C153        C164   1.412       .  A
C154        C162   1.385       .  A
C154        C165   1.410       .  A
C155        C156   1.376       .  A
C155        H167   1.082       .  S
C156        H168   1.082       .  S
C157        C158   1.375       .  A
C157        H169   1.082       .  S
C158        H170   1.082       .  S
C159        C160   1.372       .  A
C159        H171   1.082       .  S
C160        H172   1.082       .  S
C161        C162   1.372       .  A
C161        H173   1.082       .  S
C162        H174   1.082       .  S
C163        C379   1.488       .  S
C164        C368   1.486       .  S
C165        C346   1.481       .  S
C166        C324   1.481   1_556  S
C177        C178   1.530       .  S
C177        C183   1.537       .  S
C177        C181   1.539       .  S
C177        C676   1.529       .  S
C178        H185   1.086       .  S
C178        C179   1.366       .  D
C179        C180   1.547   1_455  S
C179        C302   1.490       .  S
C180        C184   1.544       .  S
C180        C182   1.543   1_655  S
C180        H186   1.109       .  S
C181        H187   1.079       .  S
C181        C182   1.364       .  D
C182        C280   1.489   1_455  S
C183        H188   1.086       .  S
C183        C184   1.371   1_455  D
C184        C687   1.488       .  S
C189        C190   1.530       .  S
C189        C195   1.544       .  S
C189        C193   1.530   1_565  S
C189        C236   1.526       .  S
C190        H197   1.087       .  S
C190        C191   1.365       .  D
C191        C192   1.545       .  S
C191        C709   1.486       .  S
C192        C196   1.544       .  S
C192        C194   1.543   1_565  S
C192        H198   1.109       .  S
C193        H199   1.086       .  S
C193        C194   1.364       .  D
C194        C742   1.481       .  S
C195        H200   1.079       .  S
C195        C196   1.371       .  D
C196        C258   1.492       .  S
C201        C202   1.531       .  S
C201        C207   1.543       .  S
C201        C205   1.530       .  S
C201        C522   1.530       .  S
C202        H209   1.086       .  S
C202        C203   1.365       .  D
C203        C204   1.544   1_455  S
C203        C467   1.485   1_455  S
C204        C208   1.541       .  S
C204        C206   1.548   1_655  S
C204        H210   1.109       .  S
C205        H211   1.085       .  S
C205        C206   1.368       .  D
C206        C445   1.491   1_455  S
C207        H212   1.080   1_455  S
C207        C208   1.370   1_455  D
C208        C489   1.490       .  S
C213        C214   1.534   1_565  S
C213        C219   1.542       .  S
C213        C217   1.530       .  S
C213        C434   1.531       .  S
C214        H221   1.086       .  S
C214        C215   1.367       .  D
C215        C216   1.544   1_545  S
C215        C544   1.487       .  S
C216        C220   1.542       .  S
C216        C218   1.551       .  S
C216        H222   1.109       .  S
C217        H223   1.085       .  S
C217        C218   1.368       .  D
C218        C555   1.496       .  S
C219        H224   1.079       .  S
C219        C220   1.369       .  D
C220        C401   1.491   1_565  S
C225        C226   1.407       .  A
C225        C230   1.409   1_545  A
C226        C227   1.400       .  A
C226        H239   1.083       .  S
C227        C228   1.399       .  A
C227        H240   1.083       .  S
C228        C229   1.397   1_545  A
C228        C231   1.435       .  S
C229        C230   1.393       .  A
C229        H241   1.084       .  S
C230        H242   1.083       .  S
C231        C232   1.203       .  T
C232        C233   1.435       .  S
C233        C234   1.396   1_545  A
C233        C238   1.397       .  A
C234        C235   1.395       .  A
C234        H243   1.084       .  S
C235        C236   1.410       .  A
C235        H244   1.076       .  S
C236        C237   1.413   1_565  A
C237        C238   1.398       .  A
C237        H245   1.083       .  S
C238        H246   1.083       .  S
C247        C248   1.408   1_545  A
C247        C252   1.409       .  A
C248        C249   1.397       .  A
C248        H261   1.083       .  S
C249        C250   1.399   1_565  A
C249        H262   1.084       .  S
C250        C251   1.399       .  A
C250        C253   1.440       .  S
C251        C252   1.400       .  A
C251        H263   1.083       .  S
C252        H264   1.083       .  S
C253        C254   1.206       .  T
C254        C255   1.440       .  S
C255        C256   1.400   1_545  A
C255        C260   1.397       .  A
C256        C257   1.402       .  A
C256        H265   1.083       .  S
C257        C258   1.407       .  A
C257        H266   1.080       .  S
C258        C259   1.410   1_565  A
C259        C260   1.396       .  A
C259        H267   1.082       .  S
C260        H268   1.084       .  S
C269        C270   1.408       .  A
C269        C274   1.412       .  A
C270        C271   1.405       .  A
C270        H283   1.083       .  S
C271        C272   1.403       .  A
C271        H284   1.083       .  S
C272        C273   1.397       .  A
C272        C275   1.446       .  S
C273        C274   1.397       .  A
C273        H285   1.084       .  S
C274        H286   1.083       .  S
C275        C276   1.210       .  T
C276        C277   1.445       .  S
C277        C278   1.404       .  A
C277        C282   1.398       .  A
C278        C279   1.404       .  A
C278        H287   1.083       .  S
C279        C280   1.405       .  A
C279        H288   1.083       .  S
C280        C281   1.409       .  A
C281        C282   1.396       .  A
C281        H289   1.083   1_655  S
C282        H290   1.084       .  S
C291        C292   1.411       .  A
C291        C296   1.408       .  A
C292        C293   1.396       .  A
C292        H305   1.083       .  S
C293        C294   1.397       .  A
C293        H306   1.084       .  S
C294        C295   1.403       .  A
C294        C297   1.444       .  S
C295        C296   1.404       .  A
C295        H307   1.083       .  S
C296        H308   1.083       .  S
C297        C298   1.208       .  T
C298        C299   1.444       .  S
C299        C300   1.398   1_655  A
C299        C304   1.403       .  A
C300        C301   1.396       .  A
C300        H309   1.084       .  S
C301        C302   1.409       .  A
C301        H310   1.082       .  S
C302        C303   1.407   1_455  A
C303        C304   1.404       .  A
C303        H311   1.082       .  S
C304        H312   1.083       .  S
C313        C314   1.408       .  A
C313        C318   1.409       .  A
C314        C315   1.396       .  A
C314        H327   1.083   1_554  S
C315        C316   1.397       .  A
C315        H328   1.084   1_554  S
C316        C317   1.399       .  A
C316        C319   1.436       .  S
C317        C318   1.399       .  A
C317        H329   1.084       .  S
C318        H330   1.083       .  S
C319        C320   1.204       .  T
C320        C321   1.436       .  S
C321        C322   1.399       .  A
C321        C326   1.401   1_554  A
C322        C323   1.396       .  A
C322        H331   1.083       .  S
C323        C324   1.403       .  A
C323        H332   1.083       .  S
C324        C325   1.404   1_554  A
C325        C326   1.397       .  A
C325        H333   1.083       .  S
C326        H334   1.084       .  S
C335        C336   1.408       .  A
C335        C340   1.408       .  A
C336        C337   1.393       .  A
C336        H349   1.083       .  S
C337        C338   1.396       .  A
C337        H350   1.084       .  S
C338        C339   1.400       .  A
C338        C341   1.434       .  S
C339        C340   1.399       .  A
C339        H351   1.084       .  S
C340        H352   1.083       .  S
C341        C342   1.202       .  T
C342        C343   1.433       .  S
C343        C344   1.400   1_554  A
C343        C348   1.399       .  A
C344        C345   1.397       .  A
C344        H353   1.084       .  S
C345        C346   1.404       .  A
C345        H354   1.083       .  S
C346        C347   1.403   1_556  A
C347        C348   1.395       .  A
C347        H355   1.083       .  S
C348        H356   1.083       .  S
C357        C358   1.409       .  A
C357        C362   1.408       .  A
C358        C359   1.398       .  A
C358        H371   1.083       .  S
C359        C360   1.399       .  A
C359        H372   1.084       .  S
C360        C361   1.399       .  A
C360        C363   1.438       .  S
C361        C362   1.398       .  A
C361        H373   1.084       .  S
C362        H374   1.083       .  S
C363        C364   1.205       .  T
C364        C365   1.438       .  S
C365        C366   1.400   1_556  A
C365        C370   1.400       .  A
C366        C367   1.397       .  A
C366        H375   1.083       .  S
C367        C368   1.406   1_554  A
C367        H376   1.083       .  S
C368        C369   1.404       .  A
C369        C370   1.397       .  A
C369        H377   1.083       .  S
C370        H378   1.083       .  S
C379        C380   1.406   1_556  A
C379        C384   1.405       .  A
C380        C381   1.397       .  A
C380        H393   1.083       .  S
C381        C382   1.399   1_554  A
C381        H394   1.083       .  S
C382        C383   1.401       .  A
C382        C385   1.439       .  S
C383        C384   1.400       .  A
C383        H395   1.083       .  S
C384        H396   1.083       .  S
C385        C386   1.206   1_556  T
C386        C387   1.439       .  S
C387        C388   1.398       .  A
C387        C392   1.400       .  A
C388        C389   1.397       .  A
C388        H397   1.084       .  S
C389        C390   1.409       .  A
C389        H398   1.083       .  S
C390        C391   1.408       .  A
C391        C392   1.399       .  A
C391        H399   1.083       .  S
C392        H400   1.083       .  S
C401        C402   1.408       .  A
C401        C406   1.407   1_545  A
C402        C403   1.395       .  A
C402        H415   1.082       .  S
C403        C404   1.398       .  A
C403        H416   1.084       .  S
C404        C405   1.401   1_545  A
C404        C407   1.442       .  S
C405        C406   1.402       .  A
C405        H417   1.083       .  S
C406        H418   1.078       .  S
C407        C408   1.207       .  T
C408        C409   1.443   1_545  S
C409        C410   1.400   1_565  A
C409        C414   1.400       .  A
C410        C411   1.401       .  A
C410        H419   1.083       .  S
C411        C412   1.409   1_545  A
C411        H420   1.083       .  S
C412        C413   1.409       .  A
C413        C414   1.398       .  A
C413        H421   1.083       .  S
C414        H422   1.084       .  S
C423        C424   1.407       .  A
C423        C428   1.410       .  A
C424        C425   1.401       .  A
C424        H437   1.083       .  S
C425        C426   1.401       .  A
C425        H438   1.083       .  S
C426        C427   1.397       .  A
C426        C429   1.439       .  S
C427        C428   1.394       .  A
C427        H439   1.084       .  S
C428        H440   1.083       .  S
C429        C430   1.206       .  T
C430        C431   1.440       .  S
C431        C432   1.397       .  A
C431        C436   1.397       .  A
C432        C433   1.397       .  A
C432        H441   1.084       .  S
C433        C434   1.413       .  A
C433        H442   1.076       .  S
C434        C435   1.412       .  A
C435        C436   1.399       .  A
C435        H443   1.083       .  S
C436        H444   1.083       .  S
C445        C446   1.410   1_655  A
C445        C450   1.407       .  A
C446        C447   1.394   1_455  A
C446        H459   1.082       .  S
C447        C448   1.396       .  A
C447        H460   1.084   1_655  S
C448        C449   1.403       .  A
C448        C451   1.442       .  S
C449        C450   1.404       .  A
C449        H461   1.083       .  S
C450        H462   1.082       .  S
C451        C452   1.208       .  T
C452        C453   1.443       .  S
C453        C454   1.397       .  A
C453        C458   1.403       .  A
C454        C455   1.396       .  A
C454        H463   1.084       .  S
C455        C456   1.410       .  A
C455        H464   1.083       .  S
C456        C457   1.408       .  A
C457        C458   1.404       .  A
C457        H465   1.083       .  S
C458        H466   1.083       .  S
C467        C468   1.406       .  A
C467        C472   1.406   1_655  A
C468        C469   1.404       .  A
C468        H481   1.083       .  S
C469        C470   1.403       .  A
C469        H482   1.083       .  S
C470        C471   1.400   1_655  A
C470        C473   1.446       .  S
C471        C472   1.398       .  A
C471        H483   1.084       .  S
C472        H484   1.083       .  S
C473        C474   1.210       .  T
C474        C475   1.446       .  S
C475        C476   1.398       .  A
C475        C480   1.403       .  A
C476        C477   1.398       .  A
C476        H485   1.084       .  S
C477        C478   1.410       .  A
C477        H486   1.083       .  S
C478        C479   1.408       .  A
C479        C480   1.404       .  A
C479        H487   1.083   1_655  S
C480        H488   1.083   1_655  S
C489        C490   1.408       .  A
C489        C494   1.408       .  A
C490        C491   1.394       .  A
C490        H503   1.082       .  S
C491        C492   1.397       .  A
C491        H504   1.084       .  S
C492        C493   1.402       .  A
C492        C495   1.440       .  S
C493        C494   1.403       .  A
C493        H505   1.083       .  S
C494        H506   1.082       .  S
C495        C496   1.207       .  T
C496        C497   1.441       .  S
C497        C498   1.399       .  A
C497        C502   1.399       .  A
C498        C499   1.400       .  A
C498        H507   1.083       .  S
C499        C500   1.409       .  A
C499        H508   1.083       .  S
C500        C501   1.408       .  A
C501        C502   1.397       .  A
C501        H509   1.083       .  S
C502        H510   1.084       .  S
C511        C512   1.408       .  A
C511        C516   1.410       .  A
C512        C513   1.402       .  A
C512        H525   1.083       .  S
C513        C514   1.401       .  A
C513        H526   1.083       .  S
C514        C515   1.398       .  A
C514        C517   1.442       .  S
C515        C516   1.396       .  A
C515        H527   1.084       .  S
C516        H528   1.083       .  S
C517        C518   1.207       .  T
C518        C519   1.442       .  S
C519        C520   1.397       .  A
C519        C524   1.398       .  A
C520        C521   1.397       .  A
C520        H529   1.084       .  S
C521        C522   1.412       .  A
C521        H530   1.076       .  S
C522        C523   1.412       .  A
C523        C524   1.400       .  A
C523        H531   1.083       .  S
C524        H532   1.083       .  S
C533        C534   1.411       .  A
C533        C538   1.409       .  A
C534        C535   1.397       .  A
C534        H547   1.083       .  S
C535        C536   1.398       .  A
C535        H548   1.084       .  S
C536        C537   1.403       .  A
C536        C539   1.446       .  S
C537        C538   1.405       .  A
C537        H549   1.083       .  S
C538        H550   1.083       .  S
C539        C540   1.210       .  T
C540        C541   1.446       .  S
C541        C542   1.400       .  A
C541        C546   1.403       .  A
C542        C543   1.398       .  A
C542        H551   1.084       .  S
C543        C544   1.406       .  A
C543        H552   1.083       .  S
C544        C545   1.406       .  A
C545        C546   1.404       .  A
C545        H553   1.083       .  S
C546        H554   1.083       .  S
C555        C556   1.408       .  A
C555        C560   1.410       .  A
C556        C557   1.405       .  A
C556        H569   1.078       .  S
C557        C558   1.403       .  A
C557        H570   1.083       .  S
C558        C559   1.397       .  A
C558        C561   1.446       .  S
C559        C560   1.396       .  A
C559        H571   1.084       .  S
C560        H572   1.082       .  S
C561        C562   1.210       .  T
C562        C563   1.446       .  S
C563        C564   1.402       .  A
C563        C568   1.399       .  A
C564        C565   1.404       .  A
C564        H573   1.083       .  S
C565        C566   1.409       .  A
C565        H574   1.083       .  S
C566        C567   1.409       .  A
C567        C568   1.399       .  A
C567        H575   1.083       .  S
C568        H576   1.084       .  S
C577        C578   1.403       .  A
C577        C582   1.404       .  A
C578        C579   1.396       .  A
C578        H591   1.083       .  S
C579        C580   1.400       .  A
C579        H592   1.083       .  S
C580        C581   1.400       .  A
C580        C583   1.436       .  S
C581        C582   1.398       .  A
C581        H593   1.083       .  S
C582        H594   1.083       .  S
C583        C584   1.204       .  T
C584        C585   1.436       .  S
C585        C586   1.400       .  A
C585        C590   1.397       .  A
C586        C587   1.398       .  A
C586        H595   1.083       .  S
C587        C588   1.406       .  A
C587        H596   1.083       .  S
C588        C589   1.410       .  A
C589        C590   1.395       .  A
C589        H597   1.083       .  S
C590        H598   1.084       .  S
C599        C600   1.412       .  A
C599        C604   1.407       .  A
C600        C601   1.398       .  A
C600        H613   1.083       .  S
C601        C602   1.398       .  A
C601        H614   1.084       .  S
C602        C603   1.400       .  A
C602        C605   1.438       .  S
C603        C604   1.399       .  A
C603        H615   1.084       .  S
C604        H616   1.083       .  S
C605        C606   1.205       .  T
C606        C607   1.437       .  S
C607        C608   1.400       .  A
C607        C612   1.400       .  A
C608        C609   1.397       .  A
C608        H617   1.083       .  S
C609        C610   1.404       .  A
C609        H618   1.083       .  S
C610        C611   1.404       .  A
C611        C612   1.397       .  A
C611        H619   1.083       .  S
C612        H620   1.083       .  S
C621        C622   1.407       .  A
C621        C626   1.408       .  A
C622        C623   1.398       .  A
C622        H635   1.083       .  S
C623        C624   1.400       .  A
C623        H636   1.083       .  S
C624        C625   1.397       .  A
C624        C627   1.435       .  S
C625        C626   1.394       .  A
C625        H637   1.084       .  S
C626        H638   1.083       .  S
C627        C628   1.203       .  T
C628        C629   1.435       .  S
C629        C630   1.401       .  A
C629        C634   1.398       .  A
C630        C631   1.399       .  A
C630        H639   1.083       .  S
C631        C632   1.406       .  A
C631        H640   1.083       .  S
C632        C633   1.404       .  A
C633        C634   1.395       .  A
C633        H641   1.083       .  S
C634        H642   1.084       .  S
C643        C644   1.403       .  A
C643        C648   1.404       .  A
C644        C645   1.396       .  A
C644        H657   1.083       .  S
C645        C646   1.400       .  A
C645        H658   1.083       .  S
C646        C647   1.399       .  A
C646        C649   1.434       .  S
C647        C648   1.396       .  A
C647        H659   1.084       .  S
C648        H660   1.083       .  S
C649        C650   1.202       .  T
C650        C651   1.433       .  S
C651        C652   1.399       .  A
C651        C656   1.397       .  A
C652        C653   1.397       .  A
C652        H661   1.084       .  S
C653        C654   1.407       .  A
C653        H662   1.083       .  S
C654        C655   1.408       .  A
C655        C656   1.395       .  A
C655        H663   1.083       .  S
C656        H664   1.084       .  S
C665        C666   1.407       .  A
C665        C670   1.409       .  A
C666        C667   1.401       .  A
C666        H679   1.083       .  S
C667        C668   1.401       .  A
C667        H680   1.083       .  S
C668        C669   1.395       .  A
C668        C671   1.433       .  S
C669        C670   1.390       .  A
C669        H681   1.084       .  S
C670        H682   1.083       .  S
C671        C672   1.202       .  T
C672        C673   1.434       .  S
C673        C674   1.398       .  A
C673        C678   1.394       .  A
C674        C675   1.398       .  A
C674        H683   1.083       .  S
C675        C676   1.411       .  A
C675        H684   1.083       .  S
C676        C677   1.414       .  A
C677        C678   1.394       .  A
C677        H685   1.075       .  S
C678        H686   1.084       .  S
C687        C688   1.407       .  A
C687        C692   1.407       .  A
C688        C689   1.398       .  A
C688        H701   1.083       .  S
C689        C690   1.399       .  A
C689        H702   1.084       .  S
C690        C691   1.402       .  A
C690        C693   1.444       .  S
C691        C692   1.403       .  A
C691        H703   1.083       .  S
C692        H704   1.083       .  S
C693        C694   1.209       .  T
C694        C695   1.444       .  S
C695        C696   1.401       .  A
C695        C700   1.399       .  A
C696        C697   1.402       .  A
C696        H705   1.083       .  S
C697        C698   1.409       .  A
C697        H706   1.083       .  S
C698        C699   1.409       .  A
C699        C700   1.398       .  A
C699        H707   1.083       .  S
C700        H708   1.084       .  S
C709        C710   1.405       .  A
C709        C714   1.406       .  A
C710        C711   1.406       .  A
C710        H723   1.082       .  S
C711        C712   1.405       .  A
C711        H724   1.083       .  S
C712        C713   1.400       .  A
C712        C715   1.450       .  S
C713        C714   1.398       .  A
C713        H725   1.083       .  S
C714        H726   1.083       .  S
C715        C716   1.212       .  T
C716        C717   1.451       .  S
C717        C718   1.405       .  A
C717        C722   1.398       .  A
C718        C719   1.408       .  A
C718        H727   1.083       .  S
C719        C720   1.410       .  A
C719        H728   1.083       .  S
C720        C721   1.411       .  A
C721        C722   1.398       .  A
C721        H729   1.083       .  S
C722        H730   1.084       .  S
C731        C732   1.411       .  A
C731        C736   1.408       .  A
C732        C733   1.397       .  A
C732        H745   1.083       .  S
C733        C734   1.397       .  A
C733        H746   1.084       .  S
C734        C735   1.401       .  A
C734        C737   1.441       .  S
C735        C736   1.402       .  A
C735        H747   1.083       .  S
C736        H748   1.083       .  S
C737        C738   1.206       .  T
C738        C739   1.440       .  S
C739        C740   1.397       .  A
C739        C744   1.403       .  A
C740        C741   1.394       .  A
C740        H749   1.084       .  S
C741        C742   1.407       .  A
C741        H750   1.083       .  S
C742        C743   1.404       .  A
C743        C744   1.402       .  A
C743        H751   1.083       .  S
C744        H752   1.083       .  S
