geometry optimzed in LAMMPS
_audit_creation_date              2020-12-01 
_audit_creation_method            'lammps2cif' 
_symmetry_space_group_name_H-M    'P1' 
_symmetry_Int_Tables_number       1 
_symmetry_cell_setting            triclinic 
loop_ 
_symmetry_equiv_pos_as_xyz 
  x,y,z 
_cell_length_a                    37.25898108 
_cell_length_b                    36.72564007092576 
_cell_length_c                    35.376588636524296 
_cell_angle_alpha                 95.26362775477331 
_cell_angle_beta                  87.06334995518266 
_cell_angle_gamma                 92.68854941033845 
loop_ 
_atom_site_label 
_atom_site_type_symbol 
_atom_site_fract_x 
_atom_site_fract_y 
_atom_site_fract_z 
_atom_site_charge 
C1          C  0.89076320  0.81297067  0.87974614     0.03900
C2          C  0.91242873  0.83188588  0.85374115    -0.12300
C3          C  0.90050954  0.86354171  0.83980088     0.01400
C4          C  0.86769065  0.87773745  0.85415307    -0.10800
C5          C  0.84551468  0.85920047  0.88008083     0.03900
C6          C  0.85711422  0.82657454  0.89262847    -0.10200
H7          H  0.93828249  0.82147789  0.84379264     0.09500
H8          H  0.85884053  0.90271019  0.84415790     0.07000
H9          H  0.83994407  0.81173885  0.91214327     0.06800
C10         C  0.86432426  0.70171254  0.36011760     0.03900
C11         C  0.83589053  0.68557747  0.38118879    -0.12300
C12         C  0.82144105  0.65076254  0.36907456     0.01400
C13         C  0.83622164  0.63163953  0.33623684    -0.10800
C14         C  0.86452881  0.64758101  0.31488803     0.03900
C15         C  0.87886428  0.68240273  0.32731358    -0.10200
H16         H  0.82431280  0.70051046  0.40638878     0.09500
H17         H  0.82480164  0.60494077  0.32659825     0.07000
H18         H  0.90058490  0.69496290  0.31079063     0.06800
O19         O  0.95484097  0.43701968  0.96571470    -0.80200
O20         O  0.10053860  0.50605676  0.02140309    -0.64800
O21         O  0.00309756  0.47043315  0.01784700    -1.11400
C22         C  0.98760536  0.58525391  0.96780860     1.06700
O23         O  0.08251051  0.55888672  0.04917984    -0.78000
O24         O  0.01396891  0.57818708  0.05742598    -0.65600
Ni25       Ni  0.99114877  0.42177621  0.99712114     1.34900
C26         C  0.98438789  0.56101709  0.06417431     0.85500
O27         O  0.06724312  0.44519168  0.04366420    -0.78600
O28         O  0.02542825  0.40132719  0.02735163    -0.88900
C29         C  0.10714675  0.53668544  0.03969425     0.85000
O30         O  0.02453990  0.42007972  0.95428581    -0.67100
O31         O  0.01655689  0.59578111  0.98403720    -0.86400
C32         C  0.05430837  0.43708542  0.94746993     0.85900
C33         C  0.05400715  0.41254262  0.04392184     1.07400
H34         H  0.04637586  0.52548546  0.96903402     0.39200
O35         O  0.03657585  0.52693803  0.99487096    -1.09000
O36         O  0.97230800  0.53452790  0.04204174    -0.65700
Ni37       Ni  0.98740034  0.51112733  0.99316943     1.26300
O38         O  0.06715033  0.46268335  0.97019786    -0.65900
O39         O  0.97342537  0.55289645  0.96856095    -0.78200
C40         C  0.93136636  0.46087995  0.97392697     0.85300
O41         O  0.93920558  0.49202458  0.99057008    -0.65400
Ni42       Ni  0.04877551  0.57521631  0.01598403     1.27400
Ni43       Ni  0.05247792  0.48641694  0.01916808     1.26100
H44         H  0.99342814  0.47217325  0.04379543     0.39800
C45         C  0.66948523  0.30632293  0.84253130     0.03900
C46         C  0.65424946  0.32117337  0.81230914    -0.12300
C47         C  0.66750086  0.35485866  0.80055296     0.01400
C48         C  0.69510946  0.37442057  0.82003486    -0.10800
C49         C  0.70996104  0.36005743  0.85068899     0.03900
C50         C  0.69734682  0.32588161  0.86173387    -0.10200
H51         H  0.63212023  0.30659666  0.79798301     0.09500
H52         H  0.70515343  0.40065249  0.81118366     0.07000
H53         H  0.70895927  0.31468846  0.88541666     0.06800
O54         O  0.46441186  0.07037917  0.05747507    -0.80200
O55         O  0.60012924  0.99441788  0.98583537    -0.64800
O56         O  0.50618325  0.03388966  0.99809680    -1.11400
C57         C  0.47309877  0.92282324  0.04962985     1.06700
O58         O  0.57812685  0.94039278  0.96284348    -0.78000
O59         O  0.50654365  0.93342951  0.95422508    -0.65600
Ni60       Ni  0.49974486  0.08319973  0.01860003     1.34900
C61         C  0.47700630  0.94900979  0.95339797     0.85500
O62         O  0.57312439  0.05641234  0.96534615    -0.78600
O63         O  0.53348196  0.10048264  0.98100501    -0.88900
C64         C  0.60482817  0.96205343  0.97082042     0.85000
O65         O  0.53570644  0.08637988  0.05550184    -0.67100
O66         O  0.49688524  0.90948893  0.02577406    -0.86400
C67         C  0.56190724  0.06710580  0.06162595     0.85900
C68         C  0.56162893  0.08836274  0.96309434     1.07400
H69         H  0.54278183  0.97687177  0.04318081     0.39200
O70         O  0.53259275  0.97644923  0.01881821    -1.09000
O71         O  0.46567600  0.97153012  0.98046557    -0.65700
Ni72       Ni  0.48555320  0.99558620  0.02640731     1.26300
O73         O  0.57026170  0.03919358  0.03958710    -0.65900
O74         O  0.46696756  0.95670295  0.05494697    -0.78200
C75         C  0.43684683  0.04929759  0.05200387     0.85300
O76         O  0.43993582  0.01764284  0.03490695    -0.65400
Ni77       Ni  0.53672793  0.92790232  0.99499987     1.27400
Ni78       Ni  0.55373394  0.01587828  0.99209078     1.26100
H79         H  0.49624042  0.03167504  0.97319987     0.39800
C80         C  0.14974638  0.18834491  0.13864940     0.03900
C81         C  0.18222666  0.17228701  0.12579042    -0.12300
C82         C  0.19140931  0.13892493  0.13853920     0.01400
C83         C  0.16802326  0.12182570  0.16433900    -0.10800
C84         C  0.13565428  0.13760639  0.17770898     0.03900
C85         C  0.12685154  0.17115531  0.16512554    -0.10200
H86         H  0.20041966  0.18584933  0.10614194     0.09500
H87         H  0.17560515  0.09668013  0.17505109     0.07000
H88         H  0.10275378  0.18437484  0.17655077     0.06800
C89         C  0.35385423  0.83174454  0.65943397     0.03900
C90         C  0.36504874  0.84794573  0.69475222    -0.12300
C91         C  0.34855979  0.87882672  0.71292022     0.01400
C92         C  0.31967916  0.89327448  0.69621914    -0.10800
C93         C  0.30706112  0.87672736  0.66182327     0.03900
C94         C  0.32514710  0.84706289  0.64276094    -0.10200
H95         H  0.38692597  0.83661767  0.70828372     0.09500
H96         H  0.30684233  0.91716252  0.71003068     0.07000
H97         H  0.31707895  0.83656598  0.61483408     0.06800
O98         O  0.06520048  0.03156766  0.42998173    -0.80200
O99         O  0.00353773  0.99960658  0.59441544    -0.64800
O100        O  0.03344452  0.99174959  0.48882022    -1.11400
C101        C  0.92057905  0.04519531  0.47684210     1.06700
O102        O  0.95034188  0.97434889  0.58010428    -0.78000
O103        O  0.92926030  0.96021715  0.50910858    -0.65600
Ni104      Ni  0.08079317  0.00665397  0.47152412     1.34900
C105        C  0.94549216  0.94956003  0.47803620     0.85500
O106        O  0.06169797  0.97281544  0.55695542    -0.78600
O107        O  0.10275990  0.98269540  0.51002865    -0.88900
C108        C  0.97428038  0.98286408  0.60399143     0.85000
O109        O  0.08248791  0.05199018  0.50189205    -0.67100
O110        O  0.91125985  0.03180684  0.50806853    -0.86400
C111        C  0.06862692  0.06310244  0.53420214     0.85900
C112        C  0.09344740  0.97099233  0.54200939     1.07400
H113        H  0.98193635  0.04601640  0.53547984     0.39200
O114        O  0.97999134  0.02036932  0.52648183    -1.09000
O115        O  0.96926479  0.96946065  0.46176630    -0.65700
Ni116      Ni  0.99292094  0.01650906  0.47355839     1.26300
O117        O  0.04519585  0.04420128  0.55258247    -0.65900
O118        O  0.95167442  0.04154946  0.46043821    -0.78200
C119        C  0.03849322  0.02599306  0.40897486     0.85300
O120        O  0.00826033  0.01349676  0.42112645    -0.65400
Ni121      Ni  0.93306015  0.00353342  0.54296775     1.27400
Ni122      Ni  0.02052729  0.99667682  0.54218195     1.26100
H123        H  0.03074817  0.96602870  0.48044026     0.39800
C124        C  0.66034429  0.19217534  0.36777020     0.03900
C125        C  0.68854990  0.17702389  0.38519354    -0.12300
C126        C  0.71026289  0.15113770  0.36479530     0.01400
C127        C  0.70309143  0.13921536  0.32696644    -0.10800
C128        C  0.67508372  0.15409884  0.30922642     0.03900
C129        C  0.65486901  0.18143530  0.32921862    -0.10200
H130        H  0.69371339  0.18514282  0.41469944     0.09500
H131        H  0.71917908  0.11845157  0.31145308     0.07000
H132        H  0.63408448  0.19357582  0.31483970     0.06800
C133        C  0.17843907  0.30496745  0.64297838     0.03900
C134        C  0.20924608  0.32261549  0.62704084    -0.12300
C135        C  0.22310672  0.35619550  0.64424254     0.01400
C136        C  0.20651566  0.37091304  0.67865353    -0.10800
C137        C  0.17663764  0.35272820  0.69545024     0.03900
C138        C  0.16182305  0.32083942  0.67651438    -0.10200
H139        H  0.22308817  0.30940830  0.60224457     0.09500
H140        H  0.21730596  0.39621077  0.69274275     0.07000
H141        H  0.13792660  0.30760559  0.68871955     0.06800
C142        C  0.36719041  0.70265904  0.16485689     0.03900
C143        C  0.38258718  0.68848994  0.19535264    -0.12300
C144        C  0.37070221  0.65422946  0.20653392     0.01400
C145        C  0.34311943  0.63426266  0.18753082    -0.10800
C146        C  0.32809434  0.64812135  0.15669388     0.03900
C147        C  0.34016294  0.68227104  0.14532667    -0.10200
H148        H  0.40355552  0.70420955  0.21051993     0.09500
H149        H  0.33333777  0.60809015  0.19675329     0.07000
H150        H  0.32847471  0.69295042  0.12139655     0.06800
O151        O  0.48119406  0.57875245  0.57878792    -0.80200
O152        O  0.52784344  0.43212962  0.49451676    -0.64800
O153        O  0.53006860  0.53041269  0.54095319    -1.11400
C154        C  0.48163599  0.55411150  0.42426799     1.06700
O155        O  0.55416325  0.45088579  0.44233225    -0.78000
O156        O  0.56662196  0.52110337  0.43129238    -0.65600
Ni157      Ni  0.51167295  0.54135630  0.59166396     1.34900
C158        C  0.57578471  0.54956299  0.45227305     0.85500
O159        O  0.55109988  0.46243782  0.56134899    -0.78600
O160        O  0.54104958  0.50567880  0.60943906    -0.88900
C161        C  0.54414406  0.42508682  0.46252831     0.85000
O162        O  0.47068724  0.50804333  0.59030301    -0.67100
O163        O  0.49693428  0.52515321  0.41062706    -0.86400
C164        C  0.46107683  0.48062611  0.56810905     0.85900
C165        C  0.55424234  0.47560514  0.59574660     1.07400
H166        H  0.48130723  0.49211732  0.47902423     0.39200
O167        O  0.50625771  0.50052623  0.47908689    -1.09000
O168        O  0.55469005  0.56352308  0.47873957    -0.65700
Ni169      Ni  0.50728937  0.55023573  0.50052462     1.26300
O170        O  0.48123348  0.46758499  0.54053918    -0.65900
O171        O  0.48382288  0.56758574  0.45872792    -0.78200
C172        C  0.48795293  0.60480361  0.55780144     0.85300
O173        O  0.50584606  0.59905750  0.52627120    -0.65400
Ni174      Ni  0.52514505  0.48897174  0.42875782     1.27400
Ni175      Ni  0.52848559  0.48064057  0.51956361     1.26100
H176        H  0.55503344  0.53871840  0.54066934     0.39800
C177        C  0.43084737  0.60895911  0.26945129    -0.11100
C178        C  0.41116703  0.61327510  0.30427974     0.11400
C179        C  0.37879672  0.63220804  0.30734622    -0.02900
C180        C  0.36616810  0.64477909  0.27441217    -0.05700
C181        C  0.38568255  0.64007825  0.23954071    -0.16500
C182        C  0.41862486  0.62225991  0.23673262     0.02500
C183        C  0.42584421  0.59816900  0.33714796     0.12400
C184        C  0.35832869  0.63995000  0.34525637     0.63000
H185        H  0.34129347  0.65907946  0.27567560     0.12400
C186        C  0.44061321  0.61746034  0.19942843     0.55200
H187        H  0.45601032  0.59517185  0.26825547     0.08200
C188        C  0.42273841  0.56037764  0.34200148    -0.05600
C189        C  0.43982306  0.54765647  0.37231284    -0.06300
C190        C  0.45974437  0.57141291  0.39761999    -0.15900
C191        C  0.46111817  0.60949430  0.39368796    -0.01500
C192        C  0.44464820  0.62215341  0.36287367    -0.09000
C193        C  0.40235001  0.53350778  0.31475501     0.65200
H194        H  0.43861997  0.51863231  0.37586405     0.10700
C195        C  0.47954450  0.63659774  0.42177799     0.63600
H196        H  0.44655602  0.65095217  0.35830112     0.08100
F197        F  0.47080756  0.59755380  0.20257107    -0.19400
F198        F  0.45188871  0.65136428  0.18814909    -0.15600
F199        F  0.41995010  0.59916020  0.17173205    -0.19100
F200        F  0.37856291  0.66409750  0.36872818    -0.22500
F201        F  0.35139646  0.60790023  0.36249458    -0.24000
F202        F  0.32577395  0.65546999  0.34106476    -0.18000
F203        F  0.47966741  0.67203334  0.41131995    -0.20500
F204        F  0.51487652  0.62752133  0.42455175    -0.21600
F205        F  0.46107948  0.63574595  0.45660433    -0.18800
F206        F  0.39972933  0.49867981  0.32697413    -0.18900
F207        F  0.41991281  0.53138511  0.27930393    -0.22700
F208        F  0.36785997  0.54488851  0.31166220    -0.24300
C209        C  0.36127436  0.46541085  0.59589584    -0.11100
C210        C  0.35744016  0.42712550  0.59163165     0.11400
C211        C  0.38641195  0.40659454  0.57512815    -0.02900
C212        C  0.41995216  0.42485524  0.56805645    -0.05700
C213        C  0.42460484  0.46311650  0.57480292    -0.16500
C214        C  0.39409878  0.48393201  0.58661230     0.02500
C215        C  0.32297151  0.40928122  0.60537827     0.12400
C216        C  0.38127841  0.36590212  0.56357170     0.63000
H217        H  0.44281539  0.40931296  0.55711532     0.12400
C218        C  0.39555764  0.52547879  0.58795283     0.55200
H219        H  0.33831793  0.48074414  0.60701557     0.10200
C220        C  0.31836212  0.39830121  0.64272106    -0.05600
C221        C  0.28573259  0.38035988  0.65365175    -0.06300
C222        C  0.25708989  0.37425387  0.62912336    -0.15900
C223        C  0.26100926  0.38727695  0.59240766    -0.01500
C224        C  0.29419558  0.40423248  0.58107275    -0.09000
C225        C  0.34750892  0.40640567  0.67123003     0.65200
H226        H  0.28217716  0.37107549  0.68183059     0.10700
C227        C  0.23026402  0.38436400  0.56554734     0.63600
H228        H  0.29804502  0.41365182  0.55296194     0.08100
F229        F  0.36147623  0.53923075  0.59081448    -0.19400
F230        F  0.41255951  0.53665103  0.55498208    -0.15600
F231        F  0.41397087  0.54035694  0.61904182    -0.19100
F232        F  0.35563706  0.36060172  0.53646473    -0.22500
F233        F  0.36985215  0.34727828  0.59449855    -0.24000
F234        F  0.41278651  0.35093221  0.54819975    -0.18000
F235        F  0.23741889  0.40552065  0.53537056    -0.20500
F236        F  0.19903681  0.39631852  0.58458959    -0.21600
F237        F  0.22483085  0.34850057  0.55084016    -0.18800
F238        F  0.33740794  0.39383741  0.70609540    -0.18900
F239        F  0.35441614  0.44378072  0.67680657    -0.22700
F240        F  0.37881004  0.38983230  0.65800382    -0.24300
C241        C  0.55488048  0.32142160  0.45293606    -0.11100
C242        C  0.58318917  0.31866908  0.42528965     0.11400
C243        C  0.59376033  0.34918787  0.40524297    -0.02900
C244        C  0.58116897  0.38343578  0.41917125    -0.05700
C245        C  0.55480320  0.38725253  0.44918227    -0.16500
C246        C  0.53873199  0.35504704  0.46349529     0.02500
C247        C  0.60108424  0.28355617  0.41691168     0.12400
C248        C  0.61605225  0.34507382  0.36787791     0.63000
H249        H  0.59149581  0.40742529  0.40588868     0.12400
C250        C  0.50312228  0.35521975  0.48651820     0.55200
H251        H  0.54519418  0.29690473  0.46573029     0.08200
C252        C  0.63627832  0.27909185  0.42842340    -0.05600
C253        C  0.65478904  0.24845623  0.41250444    -0.06300
C254        C  0.63771786  0.22048575  0.38902265    -0.15900
C255        C  0.60011164  0.22200882  0.38431209    -0.01500
C256        C  0.58303701  0.25464975  0.39623307    -0.09000
C257        C  0.65372106  0.30619057  0.45788371     0.65200
H258        H  0.68305062  0.24689778  0.41752440     0.10700
C259        C  0.57656567  0.18996065  0.36833546     0.63600
H260        H  0.55519607  0.25743446  0.38982674     0.08100
F261        F  0.50716934  0.37234770  0.52241759    -0.19400
F262        F  0.48924060  0.32006777  0.49047554    -0.15600
F263        F  0.47827341  0.37329671  0.46821969    -0.19100
F264        F  0.59747586  0.32180951  0.34200339    -0.22500
F265        F  0.64894439  0.33069329  0.37253248    -0.24000
F266        F  0.62241342  0.37825764  0.35255095    -0.18000
F267        F  0.54583449  0.18653712  0.39163976    -0.20500
F268        F  0.59337851  0.15702779  0.36646622    -0.21600
F269        F  0.56656269  0.19625818  0.33247396    -0.18800
F270        F  0.68675346  0.29489598  0.46740114    -0.18900
F271        F  0.63164902  0.30920246  0.49056584    -0.22700
F272        F  0.65895600  0.34035456  0.44465315    -0.24300
C273        C  0.07899633  0.16060671  0.58258959    -0.11100
C274        C  0.11624633  0.16728423  0.57675837     0.11400
C275        C  0.13750552  0.13926453  0.55859622    -0.02900
C276        C  0.12051407  0.10570951  0.54615153    -0.05700
C277        C  0.08318633  0.09899453  0.55121953    -0.16500
C278        C  0.06187859  0.12688645  0.56982612     0.02500
C279        C  0.13264393  0.20297784  0.59226099     0.12400
C280        C  0.17801460  0.14459452  0.55233322     0.63000
H281        H  0.13654010  0.08401831  0.53233967     0.12400
C282        C  0.02136664  0.12170074  0.57507791     0.55200
H283        H  0.06342614  0.18218203  0.59733308     0.08200
C284        C  0.13182001  0.23540833  0.57349262    -0.05600
C285        C  0.14791414  0.26804428  0.59046809    -0.06300
C286        C  0.16403254  0.26914906  0.62562013    -0.15900
C287        C  0.16505190  0.23653040  0.64411466    -0.01500
C288        C  0.14901897  0.20407437  0.62713431    -0.09000
C289        C  0.11370963  0.23556613  0.53600997     0.65200
H290        H  0.14734130  0.29324111  0.57686015     0.10700
C291        C  0.18278857  0.23569517  0.68173087     0.63600
H292        H  0.14876057  0.17910307  0.64126375     0.08100
F293        F  0.00566812  0.15341389  0.59071556    -0.19400
F294        F  0.01291965  0.09459810  0.59911730    -0.15600
F295        F  0.00675857  0.11198489  0.54024332    -0.19100
F296        F  0.19401151  0.14959706  0.58690882    -0.22500
F297        F  0.18600687  0.17485471  0.53245718    -0.24000
F298        F  0.19295170  0.11463380  0.53176653    -0.18000
F299        F  0.18830906  0.20021834  0.68967084    -0.20500
F300        F  0.16108979  0.25168683  0.71086332    -0.21600
F301        F  0.21591855  0.25430280  0.68076508    -0.18800
F302        F  0.11700428  0.26961111  0.52199607    -0.18900
F303        F  0.07747139  0.22642845  0.54093905    -0.22700
F304        F  0.12909382  0.21048928  0.50919322    -0.24300
C305        C  0.85861717  0.08155486  0.40729654    -0.11100
C306        C  0.83429349  0.10036961  0.43262774     0.11400
C307        C  0.83924040  0.10245522  0.47213818    -0.02900
C308        C  0.86896317  0.08568077  0.48491554    -0.05700
C309        C  0.89312495  0.06604029  0.45972918    -0.16500
C310        C  0.88804977  0.06415972  0.42003672     0.02500
C311        C  0.80242198  0.11504649  0.41672740     0.12400
C312        C  0.81273024  0.12133640  0.50074197     0.63000
H313        H  0.87303903  0.08697377  0.51510423     0.12400
C314        C  0.91247317  0.04289987  0.39118252     0.55200
H315        H  0.85376603  0.08000063  0.37725226     0.08200
C316        C  0.80410257  0.14875405  0.40009315    -0.05600
C317        C  0.77320745  0.15969241  0.38362855    -0.06300
C318        C  0.74137214  0.13773345  0.38290742    -0.15900
C319        C  0.73959178  0.10424330  0.39980261    -0.01500
C320        C  0.77045030  0.09325746  0.41623042    -0.09000
C321        C  0.83851427  0.17260761  0.39907656     0.65200
H322        H  0.77374363  0.18529865  0.37061359     0.10700
C323        C  0.70514788  0.08053986  0.40063786     0.63600
H324        H  0.77002462  0.06734327  0.42864244     0.08100
F325        F  0.90029553  0.04176294  0.35474444    -0.19400
F326        F  0.91415154  0.00722760  0.40037399    -0.15600
F327        F  0.94652354  0.05944422  0.39085214    -0.19100
F328        F  0.77923584  0.10368326  0.49837875    -0.22500
F329        F  0.80995781  0.15738332  0.49344310    -0.24000
F330        F  0.82324845  0.12101674  0.53768946    -0.18000
F331        F  0.70878666  0.04966963  0.41959792    -0.20500
F332        F  0.69581319  0.06928387  0.36394849    -0.21600
F333        F  0.67769069  0.10035363  0.41899939    -0.18800
F334        F  0.83362511  0.20518004  0.38355407    -0.18900
F335        F  0.86498520  0.15426527  0.37729322    -0.22700
F336        F  0.85016702  0.18098360  0.43542858    -0.24300
C337        C  0.21036170  0.88854439  0.63600059    -0.11100
C338        C  0.21505963  0.91703911  0.61220541     0.11400
C339        C  0.24964166  0.93417876  0.60718548    -0.02900
C340        C  0.27907536  0.91975470  0.62345251    -0.05700
C341        C  0.27456900  0.89026947  0.64607792    -0.16500
C342        C  0.23938149  0.87527671  0.65380298     0.02500
C343        C  0.18283393  0.92927077  0.59440846     0.12400
C344        C  0.25522784  0.96807113  0.58564924     0.63000
H345        H  0.30593386  0.93167836  0.61902145     0.12400
C346        C  0.23035364  0.84615430  0.68106209     0.55200
H347        H  0.18349976  0.87673888  0.64104914     0.08200
C348        C  0.17063123  0.91224315  0.55953533    -0.05600
C349        C  0.14035481  0.92580315  0.54407293    -0.06300
C350        C  0.12180368  0.95523031  0.56261123    -0.15900
C351        C  0.13346754  0.97162346  0.59799769    -0.01500
C352        C  0.16362541  0.95791557  0.61356015    -0.09000
C353        C  0.18973642  0.88018761  0.53855413     0.65200
H354        H  0.13121202  0.91392240  0.51689777     0.10700
C355        C  0.11535320  0.00463864  0.61820953     0.63600
H356        H  0.17305864  0.97000790  0.64052902     0.08100
F357        F  0.25989255  0.83488371  0.69817333    -0.19400
F358        F  0.21414570  0.81587646  0.66164349    -0.15600
F359        F  0.20646239  0.85994372  0.70946423    -0.19100
F360        F  0.23456909  0.99570923  0.60303066    -0.22500
F361        F  0.24530466  0.96039005  0.54858561    -0.24000
F362        F  0.29078862  0.98085635  0.58492893    -0.18000
F363        F  0.07997594  0.99536572  0.62813316    -0.20500
F364        F  0.11638628  0.03260049  0.59449388    -0.21600
F365        F  0.13222410  0.01762742  0.65103775    -0.18800
F366        F  0.17258933  0.86683946  0.50599664    -0.18900
F367        F  0.19055627  0.85195911  0.56173836    -0.22700
F368        F  0.22457532  0.89095774  0.52806714    -0.24300
C369        C  0.37731408  0.73857770  0.60761554    -0.11100
C370        C  0.41493564  0.73975588  0.60952776     0.11400
C371        C  0.43233597  0.77181250  0.62673953    -0.02900
C372        C  0.41143772  0.80187490  0.63979268    -0.05700
C373        C  0.37355505  0.79984635  0.64019214    -0.16500
C374        C  0.35610649  0.76668865  0.62537919     0.02500
C375        C  0.43450391  0.70557575  0.59693882     0.12400
C376        C  0.47240584  0.77385405  0.63342860     0.63000
H377        H  0.42468296  0.82705283  0.65126667     0.12400
C378        C  0.31588718  0.75877955  0.63166347     0.55200
H379        H  0.36433186  0.71421611  0.59393793     0.08200
C380        C  0.42802571  0.67312334  0.61547040    -0.05600
C381        C  0.44494848  0.64113907  0.60052987    -0.06300
C382        C  0.47137687  0.64091205  0.57042813    -0.15900
C383        C  0.48146573  0.67486481  0.55566552    -0.01500
C384        C  0.46076867  0.70570816  0.56694880    -0.09000
C385        C  0.40460765  0.67230508  0.65196878     0.65200
H386        H  0.43774477  0.61593833  0.61320166     0.10700
C387        C  0.51568689  0.67985500  0.53135003     0.63600
H388        H  0.46573382  0.73057918  0.55300000     0.08100
F389        F  0.30741488  0.72156259  0.62709767    -0.19400
F390        F  0.29696320  0.77534666  0.60591827    -0.15600
F391        F  0.30464975  0.77117280  0.66828630    -0.19100
F392        F  0.49202721  0.77481389  0.59933544    -0.22500
F393        F  0.48146057  0.74375847  0.65117396    -0.24000
F394        F  0.48224666  0.80488208  0.65645787    -0.18000
F395        F  0.51246090  0.66111444  0.49621995    -0.20500
F396        F  0.54421453  0.66696102  0.54899969    -0.21600
F397        F  0.52356224  0.71628684  0.52596511    -0.18800
F398        F  0.40897981  0.64085647  0.66973925    -0.18900
F399        F  0.36872689  0.67341267  0.64435372    -0.22700
F400        F  0.41389784  0.70188369  0.67718824    -0.24300
C401        C  0.06300861  0.08639284  0.23498429    -0.11100
C402        C  0.07975678  0.08631095  0.26962320     0.11400
C403        C  0.11429656  0.10357659  0.27401325    -0.02900
C404        C  0.13082440  0.12081153  0.24348517    -0.05700
C405        C  0.11424855  0.12111285  0.20884948    -0.16500
C406        C  0.07978989  0.10361129  0.20422193     0.02500
C407        C  0.06143030  0.06746276  0.30110867     0.12400
C408        C  0.13373101  0.10377430  0.31083280     0.63000
H409        H  0.15731109  0.13398783  0.24619008     0.12400
C410        C  0.06127627  0.10243673  0.16688643     0.55200
H411        H  0.03676839  0.07270301  0.23225141     0.08200
C412        C  0.03759075  0.08577409  0.32809047    -0.05600
C413        C  0.02875579  0.07012180  0.36239654    -0.06300
C414        C  0.04281452  0.03692815  0.36990905    -0.15900
C415        C  0.06416811  0.01718850  0.34158773    -0.01500
C416        C  0.07250933  0.03255642  0.30706988    -0.09000
C417        C  0.02237931  0.12200606  0.32093324     0.65200
H418        H  0.01245386  0.08469088  0.38450552     0.10700
C419        C  0.07914127  0.98078189  0.34850716     0.63600
H420        H  0.09019109  0.01880273  0.28564349     0.08100
F421        F  0.05293431  0.13739213  0.15996155    -0.19400
F422        F  0.02962976  0.08111359  0.16735777    -0.15600
F423        F  0.08369394  0.08791010  0.13751019    -0.19100
F424        F  0.14022585  0.06838209  0.31803640    -0.22500
F425        F  0.11298527  0.11993414  0.34069917    -0.24000
F426        F  0.16652009  0.12304997  0.30924091    -0.18000
F427        F  0.09768168  0.96520954  0.31659663    -0.20500
F428        F  0.05126784  0.95666779  0.35817999    -0.21600
F429        F  0.10258592  0.98569924  0.37778129    -0.18800
F430        F  0.00042630  0.13560868  0.35122431    -0.18900
F431        F  0.00213095  0.11717375  0.28904310    -0.22700
F432        F  0.04992706  0.14773033  0.31513045    -0.24300
C433        C  0.37481529  0.80266628  0.14552288    -0.11100
C434        C  0.40820268  0.80380827  0.12543635     0.11400
C435        C  0.42919918  0.77240521  0.12069730    -0.02900
C436        C  0.41479207  0.73985488  0.13428564    -0.05700
C437        C  0.38056167  0.73817682  0.15246339    -0.16500
C438        C  0.36039135  0.77002908  0.15909253     0.02500
C439        C  0.42003869  0.83770852  0.10803343     0.12400
C440        C  0.46660243  0.77334838  0.10144471     0.63000
H441        H  0.42995766  0.71521602  0.13050370     0.12400
C442        C  0.32382454  0.76942203  0.18009764     0.55200
H443        H  0.35965550  0.82729805  0.14933832     0.08200
C444        C  0.40931624  0.84438563  0.07155843    -0.05600
C445        C  0.42590487  0.87402208  0.05398189    -0.06300
C446        C  0.45204957  0.89699173  0.07219208    -0.15900
C447        C  0.46073740  0.89190887  0.10973794    -0.01500
C448        C  0.44423345  0.86223232  0.12730772    -0.09000
C449        C  0.38142859  0.81954785  0.05094287     0.65200
H450        H  0.41963929  0.87869530  0.02529453     0.10700
C451        C  0.48851624  0.91682028  0.13024125     0.63600
H452        H  0.45132512  0.85687288  0.15552958     0.08100
F453        F  0.29917963  0.74907692  0.15808430    -0.19400
F454        F  0.31126587  0.80429614  0.18816997    -0.15600
F455        F  0.32601356  0.75403174  0.21412011    -0.19100
F456        F  0.48885323  0.79796750  0.12212734    -0.22500
F457        F  0.46510720  0.78389702  0.06506467    -0.24000
F458        F  0.48180122  0.73946759  0.09886756    -0.18000
F459        F  0.47759771  0.95248378  0.13327393    -0.20500
F460        F  0.52129549  0.91500103  0.11009839    -0.21600
F461        F  0.49319610  0.90707031  0.16649668    -0.18800
F462        F  0.37413639  0.83164328  0.01632784    -0.18900
F463        F  0.34958849  0.81859659  0.07275529    -0.22700
F464        F  0.39365974  0.78446503  0.04434640    -0.24300
C465        C  0.63008137  0.07275910  0.14103686    -0.11100
C466        C  0.61706397  0.10213793  0.16501664     0.11400
C467        C  0.58737743  0.12082840  0.15448020    -0.02900
C468        C  0.57097692  0.10864911  0.12043741    -0.05700
C469        C  0.58289556  0.07824768  0.09645084    -0.16500
C470        C  0.61358156  0.06011599  0.10693462     0.02500
C471        C  0.63467371  0.11258751  0.20145585     0.12400
C472        C  0.57267171  0.15321532  0.17949876     0.63000
H473        H  0.54809947  0.12293363  0.11269264     0.12400
C474        C  0.62923659  0.02755428  0.08306350     0.55200
H475        H  0.65320638  0.05943182  0.14978605     0.08200
C476        C  0.62554967  0.09440594  0.23447409    -0.05600
C477        C  0.64045965  0.10813266  0.26895418    -0.06300
C478        C  0.66417663  0.13898072  0.27109185    -0.15900
C479        C  0.67450273  0.15617237  0.23781408    -0.01500
C480        C  0.65974232  0.14236459  0.20325458    -0.09000
C481        C  0.60021043  0.06071558  0.23321672     0.65200
H482        H  0.63319632  0.09531230  0.29481598     0.10700
C483        C  0.70075600  0.18903727  0.23907427     0.63600
H484        H  0.66678121  0.15538372  0.17747205     0.08100
F485        F  0.65939691  0.01540935  0.09857695    -0.19400
F486        F  0.63944150  0.03727074  0.04708730    -0.15600
F487        F  0.60403319  0.99866907  0.08070754    -0.19100
F488        F  0.59876509  0.18115258  0.18318867    -0.22500
F489        F  0.56234676  0.14267029  0.21511010    -0.24000
F490        F  0.54303789  0.16694635  0.16448621    -0.18000
F491        F  0.73292048  0.17965402  0.25261812    -0.20500
F492        F  0.68681298  0.21747913  0.26280692    -0.21600
F493        F  0.70772535  0.20131059  0.20346925    -0.18800
F494        F  0.59265701  0.04911137  0.26902497    -0.18900
F495        F  0.61584972  0.03244528  0.21067397    -0.22700
F496        F  0.56801608  0.06811006  0.21833646    -0.24300
C497        C  0.36167122  0.90619221  0.81791761    -0.11100
C498        C  0.39646136  0.92254556  0.81644226     0.11400
C499        C  0.41469979  0.92617674  0.78072354    -0.02900
C500        C  0.39711127  0.91342223  0.74747748    -0.05700
C501        C  0.36273714  0.89613653  0.74898927    -0.16500
C502        C  0.34459210  0.89231907  0.78466008     0.02500
C503        C  0.41518103  0.93001637  0.85263859     0.12400
C504        C  0.45304826  0.94214589  0.77775626     0.63000
H505        H  0.41064702  0.91547797  0.71986899     0.12400
C506        C  0.30854019  0.87146692  0.78761001     0.55200
H507        H  0.34876974  0.90271274  0.84556425     0.08200
C508        C  0.41264717  0.96319208  0.87606380    -0.05600
C509        C  0.43322073  0.96839120  0.90870691    -0.06300
C510        C  0.45500441  0.94092826  0.91920113    -0.15900
C511        C  0.45468235  0.90638443  0.89719767    -0.01500
C512        C  0.43514044  0.90195328  0.86401616    -0.09000
C513        C  0.38760331  0.99235208  0.86707390     0.65200
H514        H  0.43248742  0.99413026  0.92624411     0.10700
C515        C  0.47353132  0.87359327  0.90891578     0.63600
H516        H  0.43543609  0.87633572  0.84620080     0.08100
F517        F  0.29638642  0.86940384  0.82501661    -0.19400
F518        F  0.31178680  0.83617229  0.77081354    -0.15600
F519        F  0.28298226  0.88863242  0.76948871    -0.19100
F520        F  0.47573202  0.92132605  0.79576575    -0.22500
F521        F  0.45463968  0.97758947  0.79461269    -0.24000
F522        F  0.46570364  0.94284355  0.74032755    -0.18000
F523        F  0.46399189  0.86831544  0.94640368    -0.20500
F524        F  0.51040710  0.87912240  0.90453880    -0.21600
F525        F  0.46409843  0.84168457  0.88704016    -0.18800
F526        F  0.38980143  0.02300500  0.89285552    -0.18900
F527        F  0.35249709  0.97836714  0.86835551    -0.22700
F528        F  0.39606226  0.00321225  0.83121174    -0.24300
C529        C  0.35318730  0.10499960  0.07182393    -0.11100
C530        C  0.33165246  0.08254450  0.09450560     0.11400
C531        C  0.34425423  0.04832240  0.10243749    -0.02900
C532        C  0.37899264  0.03852622  0.08848697    -0.05700
C533        C  0.40094915  0.06159525  0.06664400    -0.16500
C534        C  0.38769406  0.09521623  0.05769081     0.02500
C535        C  0.29558286  0.09562477  0.10816428     0.12400
C536        C  0.32088423  0.02198799  0.12472127     0.63000
H537        H  0.38924442  0.01259768  0.09430960     0.12400
C538        C  0.40917995  0.12003985  0.03197926     0.55200
H539        H  0.34251207  0.13047165  0.06518546     0.08200
C540        C  0.29136988  0.12390076  0.13798984    -0.05600
C541        C  0.25686845  0.13734244  0.14694097    -0.06300
C542        C  0.22676458  0.12316554  0.12738225    -0.15900
C543        C  0.23075402  0.09417944  0.09843942    -0.01500
C544        C  0.26537863  0.08136972  0.08876618    -0.09000
C545        C  0.32317389  0.13991343  0.16012901     0.65200
H546        H  0.25306142  0.15924418  0.16926367     0.10700
C547        C  0.19852539  0.07697475  0.07796248     0.63600
H548        H  0.26924920  0.06023298  0.06568431     0.08100
F549        F  0.43948076  0.13461925  0.04973975    -0.19400
F550        F  0.38939511  0.14885811  0.02319417    -0.15600
F551        F  0.41935699  0.10025915  0.99827015    -0.19100
F552        F  0.29163786  0.00947723  0.10398113    -0.22500
F553        F  0.30880318  0.03938711  0.15901350    -0.24000
F554        F  0.33949162  0.99191090  0.13229625    -0.18000
F555        F  0.20845306  0.05044138  0.04948447    -0.20500
F556        F  0.18098836  0.10353096  0.06168412    -0.21600
F557        F  0.17504758  0.06065486  0.10352832    -0.18800
F558        F  0.31252684  0.16430615  0.19035668    -0.18900
F559        F  0.34694337  0.15841459  0.13662576    -0.22700
F560        F  0.34072466  0.11221374  0.17449266    -0.24300
C561        C  0.64654141  0.20555572  0.85246621    -0.11100
C562        C  0.62476537  0.20794633  0.88604657     0.11400
C563        C  0.61792197  0.24265595  0.90536771    -0.02900
C564        C  0.63293269  0.27410802  0.88988459    -0.05700
C565        C  0.65439936  0.27176013  0.85616754    -0.16500
C566        C  0.66152341  0.23712583  0.83697457     0.02500
C567        C  0.61048959  0.17360799  0.90126928     0.12400
C568        C  0.59519860  0.24648512  0.94233678     0.63000
H569        H  0.62818151  0.30098758  0.90406224     0.12400
C570        C  0.68531589  0.23362171  0.80080914     0.55200
H571        H  0.65171538  0.17866937  0.83856605     0.08200
C572        C  0.57752017  0.15638860  0.88994160    -0.05600
C573        C  0.56321110  0.12700065  0.90960074    -0.06300
C574        C  0.58156269  0.11380683  0.93889655    -0.15900
C575        C  0.61591429  0.12917431  0.94802382    -0.01500
C576        C  0.62991522  0.15898656  0.92881707    -0.09000
C577        C  0.55770987  0.16905715  0.85733916     0.65200
H578        H  0.53708779  0.11458344  0.90290336     0.10700
C579        C  0.63664162  0.11548741  0.97933898     0.63600
H580        H  0.65550506  0.17221583  0.93626340     0.08100
F581        F  0.69086754  0.19739053  0.78831653    -0.19400
F582        F  0.71847346  0.25099334  0.80722488    -0.15600
F583        F  0.66942024  0.24948948  0.77228646    -0.19100
F584        F  0.61119467  0.22931810  0.96987509    -0.22500
F585        F  0.56122078  0.23074062  0.93697378    -0.24000
F586        F  0.59140153  0.28280309  0.95572178    -0.18000
F587        F  0.66949729  0.13423985  0.98360911    -0.20500
F588        F  0.64307785  0.07880132  0.97084845    -0.21600
F589        F  0.61690486  0.12004201  0.01350691    -0.18800
F590        F  0.52583105  0.14890601  0.85142158    -0.18900
F591        F  0.57912164  0.16499313  0.82426540    -0.22700
F592        F  0.54965479  0.20544667  0.86470921    -0.24300
C593        C  0.65563648  0.39314893  0.70624563    -0.11100
C594        C  0.62048047  0.40508739  0.71169195     0.11400
C595        C  0.59996164  0.39847202  0.74532335    -0.02900
C596        C  0.61634297  0.38146323  0.77354443    -0.05700
C597        C  0.65186861  0.37019409  0.76843110    -0.16500
C598        C  0.67169485  0.37517974  0.73385269     0.02500
C599        C  0.60552268  0.42335750  0.68090910     0.12400
C600        C  0.56092914  0.40887298  0.75106505     0.63000
H601        H  0.60159565  0.37691073  0.80000980     0.12400
C602        C  0.70935382  0.36190157  0.72408368     0.55200
H603        H  0.67057522  0.39759931  0.67981622     0.08200
C604        C  0.61237878  0.46101741  0.67696693    -0.05600
C605        C  0.59621761  0.47661561  0.64763929    -0.06300
C606        C  0.57400215  0.45565458  0.62216536    -0.15900
C607        C  0.56846969  0.41755616  0.62543777    -0.01500
C608        C  0.58459217  0.40204721  0.65483931    -0.09000
C609        C  0.63624304  0.48457606  0.70391261     0.65200
H610        H  0.60042908  0.50561200  0.64464784     0.10700
C611        C  0.54537263  0.39338709  0.59856378     0.63600
H612        H  0.58074778  0.37305518  0.65806788     0.08100
F613        F  0.73303072  0.39185166  0.72182250    -0.19400
F614        F  0.70975163  0.34159850  0.68913615    -0.15600
F615        F  0.72141950  0.33999721  0.75009226    -0.19100
F616        F  0.54045179  0.38843020  0.72463405    -0.22500
F617        F  0.55796677  0.44560755  0.74668721    -0.24000
F618        F  0.54684864  0.40242175  0.78693657    -0.18000
F619        F  0.54065424  0.35809870  0.60933464    -0.20500
F620        F  0.56203132  0.39151237  0.56267541    -0.21600
F621        F  0.51171147  0.40762585  0.59776511    -0.18800
F622        F  0.63894806  0.52064588  0.69528887    -0.18900
F623        F  0.67050675  0.47140707  0.70160970    -0.22700
F624        F  0.62232243  0.48396150  0.74083508    -0.24300
C625        C  0.19291669  0.54324273  0.09260414    -0.11100
C626        C  0.20710564  0.57720557  0.08250240     0.11400
C627        C  0.19073474  0.59555733  0.05492686    -0.02900
C628        C  0.15876391  0.58014552  0.04008285    -0.05700
C629        C  0.14346222  0.54715248  0.05169687    -0.16500
C630        C  0.16080503  0.52789904  0.07783172     0.02500
C631        C  0.23800389  0.59397483  0.10292850     0.12400
C632        C  0.20677211  0.63129836  0.04161204     0.63000
H633        H  0.14489625  0.59415725  0.01985357     0.12400
C634        C  0.14447489  0.49250527  0.09144279     0.55200
H635        H  0.20648901  0.52966082  0.11337534     0.08200
C636        C  0.23324605  0.61436360  0.13865049    -0.05600
C637        C  0.26364710  0.63133510  0.15557698    -0.06300
C638        C  0.29797913  0.62806730  0.13791491    -0.15900
C639        C  0.30287619  0.60652046  0.10299779    -0.01500
C640        C  0.27247412  0.58968324  0.08590148    -0.09000
C641        C  0.19627625  0.61837198  0.15851898     0.65200
H642        H  0.26091140  0.64767399  0.18258497     0.10700
C643        C  0.34004397  0.60111941  0.08435322     0.63600
H644        H  0.27522573  0.57334910  0.05890000     0.08100
F645        F  0.11006618  0.49805679  0.10684842    -0.19400
F646        F  0.16445531  0.47973306  0.11900735    -0.15600
F647        F  0.14303792  0.46591110  0.06120567    -0.19100
F648        F  0.23994167  0.62530328  0.02335323    -0.22500
F649        F  0.21104333  0.65710666  0.07221414    -0.24000
F650        F  0.18512070  0.64563111  0.01648043    -0.18000
F651        F  0.33885834  0.57811105  0.05113205    -0.20500
F652        F  0.36143604  0.58582372  0.10897714    -0.21600
F653        F  0.35553915  0.63441058  0.07555064    -0.18800
F654        F  0.19783574  0.64006264  0.19258462    -0.18900
F655        F  0.18176191  0.58437165  0.16624094    -0.22700
F656        F  0.17361629  0.63424173  0.13563305    -0.24300
C657        C  0.16156834  0.37212474  0.80269655    -0.11100
C658        C  0.12697786  0.38579296  0.80508679     0.11400
C659        C  0.10902597  0.38959716  0.77140465    -0.02900
C660        C  0.12641040  0.37904580  0.73609131    -0.05700
C661        C  0.16120393  0.36568555  0.73359512    -0.16500
C662        C  0.17907805  0.36176630  0.76738700     0.02500
C663        C  0.11074173  0.39773339  0.84317310     0.12400
C664        C  0.07185290  0.40517929  0.77285784     0.63000
H665        H  0.11307112  0.38136699  0.70997744     0.12400
C666        C  0.21627412  0.34636475  0.76628417     0.55200
H667        H  0.17488977  0.37001447  0.82886113     0.08200
C668        C  0.09248961  0.37302614  0.86668498    -0.05600
C669        C  0.07484045  0.38720181  0.90061675    -0.06300
C670        C  0.07531906  0.42500552  0.91191856    -0.15900
C671        C  0.09496336  0.44949190  0.88885216    -0.01500
C672        C  0.11264557  0.43516217  0.85501605    -0.09000
C673        C  0.09185165  0.33196413  0.85608932     0.65200
H674        H  0.06055924  0.36867139  0.91883471     0.10700
C675        C  0.09581504  0.49064088  0.89837588     0.63600
H676        H  0.12744181  0.45325291  0.83670117     0.08100
F677        F  0.22668317  0.34077614  0.80224876    -0.19400
F678        F  0.24119487  0.37052064  0.75081874    -0.15600
F679        F  0.21664853  0.31310927  0.74453815    -0.19100
F680        F  0.07377843  0.44153996  0.78699152    -0.22500
F681        F  0.04840088  0.38596429  0.79609222    -0.24000
F682        F  0.05779412  0.40319842  0.73722870    -0.18000
F683        F  0.11386251  0.49987446  0.93130964    -0.20500
F684        F  0.06102593  0.50235636  0.90295822    -0.21600
F685        F  0.11320350  0.50911470  0.86982792    -0.18800
F686        F  0.07055379  0.31306600  0.88163865    -0.18900
F687        F  0.12637002  0.31966149  0.85584698    -0.22700
F688        F  0.07842981  0.32381524  0.82044781    -0.24300
C689        C  0.11186889  0.25947167  0.08134953    -0.11100
C690        C  0.12215419  0.29231334  0.10233830     0.11400
C691        C  0.14110559  0.29089904  0.13593383    -0.02900
C692        C  0.15048071  0.25646207  0.14636512    -0.05700
C693        C  0.14015939  0.22372697  0.12526503    -0.16500
C694        C  0.12010648  0.22509515  0.09257223     0.02500
C695        C  0.10828252  0.32693695  0.09069191     0.12400
C696        C  0.15035880  0.32538560  0.16127219     0.63000
H697        H  0.16528380  0.25468927  0.17164513     0.12400
C698        C  0.10665485  0.19022190  0.07039683     0.55200
H699        H  0.09629264  0.26102896  0.05656460     0.08200
C700        C  0.12548442  0.34663063  0.06163697    -0.05600
C701        C  0.10782892  0.37613927  0.04887066    -0.06300
C702        C  0.07324235  0.38541187  0.06311542    -0.15900
C703        C  0.05655789  0.36634244  0.09279048    -0.01500
C704        C  0.07449567  0.33748276  0.10616342    -0.09000
C705        C  0.16149177  0.33559337  0.04301275     0.65200
H706        H  0.12005400  0.39097293  0.02609247     0.10700
C707        C  0.01979657  0.37627604  0.11007187     0.63600
H708        H  0.06153961  0.32176524  0.12787777     0.08100
F709        F  0.08743780  0.19740875  0.03964461    -0.19400
F710        F  0.08429052  0.17007352  0.09380759    -0.15600
F711        F  0.13544852  0.16955669  0.05697260    -0.19100
F712        F  0.11925606  0.34269892  0.17384753    -0.22500
F713        F  0.17230574  0.34907067  0.14143056    -0.24000
F714        F  0.16813500  0.31771687  0.19284902    -0.18000
F715        F  0.99384014  0.36690018  0.08393797    -0.20500
F716        F  0.01954771  0.41350086  0.12053343    -0.21600
F717        F  0.01084905  0.35817634  0.14211361    -0.18800
F718        F  0.17346324  0.35857177  0.01565848    -0.18900
F719        F  0.15839879  0.30038077  0.02567765    -0.22700
F720        F  0.18722321  0.33692917  0.06986855    -0.24300
C721        C  0.84088374  0.41305730  0.95749731    -0.11100
C722        C  0.82933339  0.43195071  0.92802081     0.11400
C723        C  0.84856872  0.46390386  0.91762230    -0.02900
C724        C  0.88153687  0.47350581  0.93431314    -0.05700
C725        C  0.89468991  0.45257121  0.96138116    -0.16500
C726        C  0.87348568  0.42293633  0.97457266     0.02500
C727        C  0.79900458  0.41526216  0.90634558     0.12400
C728        C  0.83417273  0.48757324  0.88927942     0.63000
H729        H  0.89792666  0.49654862  0.92532739     0.12400
C730        C  0.88553902  0.40155717  0.00608530     0.55200
H731        H  0.82507313  0.38922699  0.96554161     0.08200
C732        C  0.80487823  0.38848997  0.87543591    -0.05600
C733        C  0.77492481  0.37163117  0.85745461    -0.06300
C734        C  0.73985896  0.38012598  0.87014925    -0.15900
C735        C  0.73393892  0.40677528  0.90103852    -0.01500
C736        C  0.76390693  0.42417813  0.91871270    -0.09000
C737        C  0.84253469  0.37684337  0.86244629     0.65200
H738        H  0.77853166  0.35098361  0.83382258     0.10700
C739        C  0.69612544  0.41603873  0.91549003     0.63600
H740        H  0.76024942  0.44432232  0.94278687     0.08100
F741        F  0.91482569  0.38139683  0.99316807    -0.19400
F742        F  0.85852333  0.37763814  0.01841018    -0.15600
F743        F  0.89500703  0.42542455  0.03688125    -0.19100
F744        F  0.80177712  0.50122332  0.90355450    -0.22500
F745        F  0.82871009  0.46736360  0.85499610    -0.24000
F746        F  0.85762890  0.51686072  0.88244898    -0.18000
F747        F  0.69624919  0.44266449  0.94584085    -0.20500
F748        F  0.67802472  0.38504099  0.92733650    -0.21600
F749        F  0.67778798  0.42888355  0.88675758    -0.18800
F750        F  0.84208407  0.35156195  0.83092979    -0.18900
F751        F  0.85794982  0.36106432  0.89133622    -0.22700
F752        F  0.86389893  0.40671309  0.85294012    -0.24300
C753        C  0.94133281  0.61745862  0.14902759    -0.11100
C754        C  0.92512221  0.58984189  0.16959439     0.11400
C755        C  0.92510039  0.55304268  0.15387976    -0.02900
C756        C  0.94455822  0.54472189  0.11918776    -0.05700
C757        C  0.96305149  0.57218126  0.09965711    -0.16500
C758        C  0.96014770  0.60945693  0.11405463     0.02500
C759        C  0.90899312  0.60087438  0.20786849     0.12400
C760        C  0.90405283  0.52304262  0.17335808     0.63000
H761        H  0.94587020  0.51654582  0.10729947     0.12400
C762        C  0.97649427  0.64099354  0.09300292     0.55200
H763        H  0.93996050  0.64551659  0.16132766     0.08200
C764        C  0.93009017  0.60535709  0.24029429    -0.05600
C765        C  0.91390495  0.61879751  0.27527917    -0.06300
C766        C  0.87804828  0.62920967  0.27824706    -0.15900
C767        C  0.85726758  0.62575932  0.24550629    -0.01500
C768        C  0.87309153  0.61099645  0.21082294    -0.09000
C769        C  0.96995183  0.59774342  0.23746152     0.65200
H770        H  0.92952578  0.62269106  0.30043995     0.10700
C771        C  0.81920870  0.63920604  0.24670715     0.63600
H772        H  0.85790224  0.60822683  0.18534259     0.08100
F773        F  0.96348184  0.67425829  0.10797146    -0.19400
F774        F  0.96823516  0.63628757  0.05516377    -0.15600
F775        F  0.01341642  0.64279751  0.09575129    -0.19100
F776        F  0.86790927  0.53038721  0.17573785    -0.22500
F777        F  0.91564714  0.52129815  0.20959869    -0.24000
F778        F  0.90794503  0.48904299  0.15355843    -0.18000
F779        F  0.81845823  0.67479595  0.26330082    -0.20500
F780        F  0.79635198  0.61699691  0.26742700    -0.21600
F781        F  0.80628694  0.63881274  0.21067349    -0.18800
F782        F  0.98519242  0.60295534  0.27252277    -0.18900
F783        F  0.98794654  0.62110594  0.21372859    -0.22700
F784        F  0.97506670  0.56203943  0.22297917    -0.24300
C785        C  0.87491800  0.80459102  0.38434406    -0.11100
C786        C  0.90814372  0.80730599  0.40149385     0.11400
C787        C  0.92785848  0.77548198  0.40327036    -0.02900
C788        C  0.91295444  0.74157073  0.38845525    -0.05700
C789        C  0.87913354  0.73872606  0.37252932    -0.16500
C790        C  0.86016846  0.77074860  0.36922981     0.02500
C791        C  0.91982456  0.84340878  0.42025512     0.12400
C792        C  0.96390158  0.77711706  0.42169942     0.63000
H793        H  0.92706890  0.71671474  0.39030182     0.12400
C794        C  0.82502621  0.76933256  0.34909084     0.55200
H795        H  0.86027313  0.82928139  0.38358346     0.08200
C796        C  0.93437757  0.87236556  0.39972024    -0.05600
C797        C  0.94234235  0.90645486  0.41974196    -0.06300
C798        C  0.93638134  0.91238489  0.45944956    -0.15900
C799        C  0.92302129  0.88260368  0.48002970    -0.01500
C800        C  0.91431143  0.84891619  0.45972843    -0.09000
C801        C  0.94103711  0.86745114  0.35686711     0.65200
H802        H  0.95270154  0.92906529  0.40420832     0.10700
C803        C  0.91861944  0.88544062  0.52317218     0.63600
H804        H  0.90268663  0.82634443  0.47457268     0.08100
F805        F  0.83020022  0.75325950  0.31242617    -0.19400
F806        F  0.81242376  0.80394222  0.34702942    -0.15600
F807        F  0.79889353  0.74923194  0.36821579    -0.19100
F808        F  0.95896996  0.78539257  0.46045983    -0.22500
F809        F  0.98659930  0.80364933  0.40686877    -0.24000
F810        F  0.98063723  0.74407049  0.41560140    -0.18000
F811        F  0.91109563  0.85160636  0.53678958    -0.20500
F812        F  0.89052114  0.90760842  0.53526909    -0.21600
F813        F  0.95010838  0.89965971  0.53888025    -0.18800
F814        F  0.95945610  0.89754337  0.34322191    -0.18900
F815        F  0.90858623  0.86266261  0.33944561    -0.22700
F816        F  0.96129503  0.83717377  0.34681813    -0.24300
C817        C  0.66272785  0.61163110  0.45381624    -0.11100
C818        C  0.68355688  0.59361989  0.42446360     0.11400
C819        C  0.67010833  0.56058557  0.40572138    -0.02900
C820        C  0.63524142  0.54745342  0.41609077    -0.05700
C821        C  0.61311787  0.56604810  0.44464635    -0.16500
C822        C  0.62766586  0.59869706  0.46429194     0.02500
C823        C  0.71888296  0.61071060  0.41273905     0.12400
C824        C  0.69244856  0.53955037  0.37450386     0.63000
H825        H  0.62505718  0.52226997  0.40138283     0.12400
C826        C  0.60655171  0.62063286  0.49550674     0.55200
H827        H  0.67413985  0.63657389  0.46799509     0.08200
C828        C  0.72132221  0.63903558  0.38798964    -0.05600
C829        C  0.75554325  0.65193788  0.37537743    -0.06300
C830        C  0.78700359  0.63728072  0.38647202    -0.15900
C831        C  0.78473219  0.60969468  0.41198780    -0.01500
C832        C  0.75043993  0.59717220  0.42523307    -0.09000
C833        C  0.68793901  0.65525877  0.37460806     0.65200
H834        H  0.75811114  0.67321706  0.35600620     0.10700
C835        C  0.81833537  0.59370897  0.42496937     0.63600
H836        H  0.74789197  0.57597559  0.44467850     0.08100
F837        F  0.57571747  0.63201689  0.48098049    -0.19400
F838        F  0.62577215  0.65154574  0.50992299    -0.15600
F839        F  0.59784535  0.59942517  0.52527558    -0.19100
F840        F  0.72359215  0.52869683  0.38900931    -0.22500
F841        F  0.70149384  0.56148910  0.34542400    -0.24000
F842        F  0.67409366  0.50846060  0.35919601    -0.18000
F843        F  0.81017185  0.56719513  0.44985009    -0.20500
F844        F  0.83942674  0.62118974  0.44325007    -0.21600
F845        F  0.83779123  0.57775347  0.39398392    -0.18800
F846        F  0.69646137  0.68071802  0.34866158    -0.18900
F847        F  0.66918542  0.67259296  0.40530258    -0.22700
F848        F  0.66598711  0.62794929  0.35731261    -0.24300
C849        C  0.93107461  0.74177795  0.93511191    -0.11100
C850        C  0.92891542  0.71058794  0.90913134     0.11400
C851        C  0.91252674  0.71251012  0.87417959    -0.02900
C852        C  0.90031500  0.74648055  0.86560932    -0.05700
C853        C  0.90289989  0.77784692  0.89145143    -0.16500
C854        C  0.91833857  0.77554288  0.92684612     0.02500
C855        C  0.94361530  0.67621036  0.91996538     0.12400
C856        C  0.90697430  0.67857066  0.84679170     0.63000
H857        H  0.88825889  0.74880668  0.83876197     0.12400
C858        C  0.92220803  0.80889085  0.95522524     0.55200
H859        H  0.94326088  0.73945060  0.96188721     0.08200
C860        C  0.98048374  0.66868695  0.91389961    -0.05600
C861        C  0.99294130  0.63691434  0.92740628    -0.06300
C862        C  0.97018965  0.61326922  0.94789870    -0.15900
C863        C  0.93318441  0.62081841  0.95377141    -0.01500
C864        C  0.92053158  0.65214581  0.93930721    -0.09000
C865        C  0.00693847  0.69505267  0.89505653     0.65200
H866        H  0.02119818  0.63111996  0.92358795     0.10700
C867        C  0.90740763  0.59700062  0.97650551     0.63600
H868        H  0.89254863  0.65881292  0.94392718     0.08100
F869        F  0.93796344  0.80076302  0.98787255    -0.19400
F870        F  0.88875943  0.82232473  0.96566386    -0.15600
F871        F  0.94347321  0.83572485  0.93899821    -0.19100
F872        F  0.88409340  0.65358968  0.86390826    -0.22500
F873        F  0.93933850  0.66253427  0.83691043    -0.24000
F874        F  0.89197262  0.68665920  0.81372013    -0.18000
F875        F  0.92034250  0.59395004  0.01196109    -0.20500
F876        F  0.90364464  0.56261670  0.95743446    -0.21600
F877        F  0.87363352  0.61135972  0.98181339    -0.18800
F878        F  0.04124932  0.68183257  0.89085071    -0.18900
F879        F  0.00869887  0.72815823  0.91700684    -0.22700
F880        F  0.99614686  0.70087327  0.85940852    -0.24300
C881        C  0.74888222  0.89080762  0.88546892    -0.11100
C882        C  0.74616565  0.90808224  0.92253971     0.11400
C883        C  0.77559415  0.90736708  0.94640022    -0.02900
C884        C  0.80735362  0.89067963  0.93161194    -0.05700
C885        C  0.81039970  0.87443280  0.89417069    -0.16500
C886        C  0.78049809  0.87380320  0.87083201     0.02500
C887        C  0.71106370  0.92402822  0.93630211     0.12400
C888        C  0.77360047  0.92437676  0.98719914     0.63000
H889        H  0.83035668  0.89046090  0.94909629     0.12400
C890        C  0.78162731  0.85428380  0.83105734     0.55200
H891        H  0.72575936  0.89058239  0.86809327     0.08200
C892        C  0.70074437  0.95883223  0.92732822    -0.05600
C893        C  0.66634030  0.97102986  0.94011985    -0.06300
C894        C  0.64182657  0.94914975  0.96064170    -0.15900
C895        C  0.65268486  0.91470086  0.97034947    -0.01500
C896        C  0.68693396  0.90266907  0.95755708    -0.09000
C897        C  0.72551483  0.98241524  0.90331657     0.65200
H898        H  0.65778733  0.99721309  0.93292815     0.10700
C899        C  0.62869568  0.89093756  0.99504955     0.63600
H900        H  0.69513310  0.87601511  0.96372813     0.08100
F901        F  0.74849938  0.85334420  0.81489035    -0.19400
F902        F  0.79143120  0.81858120  0.83245148    -0.15600
F903        F  0.80624924  0.87200584  0.80777746    -0.19100
F904        F  0.74623065  0.90723625  0.00768286    -0.22500
F905        F  0.76707726  0.96116801  0.98792451    -0.24000
F906        F  0.80530967  0.92110773  0.00514863    -0.18000
F907        F  0.64691128  0.86211649  0.00645935    -0.20500
F908        F  0.59965143  0.87638369  0.97509165    -0.21600
F909        F  0.61651706  0.91164825  0.02741360    -0.18800
F910        F  0.71212177  0.01667613  0.90124285    -0.18900
F911        F  0.72935680  0.96562102  0.86682422    -0.22700
F912        F  0.75896146  0.98720886  0.91867289    -0.24300
C913        C  0.93674602  0.88178289  0.74058184    -0.11100
C914        C  0.94962639  0.91820316  0.74650213     0.11400
C915        C  0.94836273  0.93618236  0.78369588    -0.02900
C916        C  0.93393004  0.91674338  0.81396006    -0.05700
C917        C  0.92041391  0.88040233  0.80787210    -0.16500
C918        C  0.92203343  0.86242483  0.77059050     0.02500
C919        C  0.95871876  0.93796169  0.71221893     0.12400
C920        C  0.96120893  0.97596164  0.79106897     0.63000
H921        H  0.93188511  0.93015746  0.84251241     0.12400
C922        C  0.90677649  0.82356879  0.76199855     0.55200
H923        H  0.93718258  0.86902110  0.71172567     0.08200
C924        C  0.99191980  0.93472871  0.69107833    -0.05600
C925        C  0.99674733  0.95188625  0.65700343    -0.06300
C926        C  0.96870790  0.96982576  0.64242114    -0.15900
C927        C  0.93510296  0.97212243  0.66326241    -0.01500
C928        C  0.93107191  0.95665641  0.69818052    -0.09000
C929        C  0.02141290  0.91195315  0.70353392     0.65200
H930        H  0.02180498  0.94949545  0.64024928     0.10700
C931        C  0.90307116  0.98977389  0.64855752     0.63600
H932        H  0.90547829  0.95745953  0.71416155     0.08100
F933        F  0.92757080  0.79922732  0.77770232    -0.19400
F934        F  0.90639733  0.81363665  0.72331312    -0.15600
F935        F  0.87177963  0.82044447  0.77676970    -0.19100
F936        F  0.94060015  0.99801996  0.77203995    -0.22500
F937        F  0.99675281  0.98022065  0.77849664    -0.24000
F938        F  0.95869695  0.98785572  0.82935749    -0.18000
F939        F  0.88925836  0.96754615  0.61858867    -0.20500
F940        F  0.91340284  0.02366455  0.63656297    -0.21600
F941        F  0.87574873  0.99484443  0.67633677    -0.18800
F942        F  0.05173220  0.91301981  0.67926225    -0.18900
F943        F  0.00921458  0.87584886  0.70387203    -0.22700
F944        F  0.03131140  0.92486643  0.73957281    -0.24300
loop_ 
_geom_bond_atom_site_label_1 
_geom_bond_atom_site_label_2 
_geom_bond_distance 
_geom_bond_site_symmetry_2 
_ccdc_geom_bond_type 
C1            C2   1.403       .  A
C1            C6   1.410       .  A
C1          C853   1.487       .  S
C2            C3   1.403       .  A
C2            H7   1.083       .  S
C3            C4   1.404       .  A
C3          C917   1.486       .  S
C4            C5   1.404       .  A
C4            H8   1.084       .  S
C5            C6   1.409       .  A
C5          C885   1.491       .  S
C6            H9   1.083       .  S
C10          C11   1.404       .  A
C10          C15   1.401       .  A
C10         C789   1.480       .  S
C11          C12   1.402       .  A
C11          H16   1.084       .  S
C12          C13   1.403       .  A
C12         C830   1.478       .  S
C13          C14   1.403       .  A
C13          H17   1.083       .  S
C14          C15   1.404       .  A
C14         C766   1.481       .  S
C15          H18   1.084       .  S
O19         Ni25   1.928       .  S
O19          C40   1.271       .  A
O20         Ni43   1.902       .  S
O20          C29   1.265       .  A
O21         Ni25   1.910   1_454  S
O21         Ni43   1.906       .  S
O21         Ni37   1.927   1_454  S
O21          H44   0.966   1_455  S
C22         C862   1.489       .  S
C22          O39   1.280       .  A
C22          O31   1.275   1_655  A
O23         Ni42   1.916       .  S
O23          C29   1.268       .  A
O24         Ni42   1.906       .  S
O24          C26   1.267   1_455  A
Ni25         O28   1.928   1_656  S
Ni25         O30   1.909   1_655  S
C26         C757   1.486       .  S
C26          O36   1.272       .  A
O27         Ni43   1.927       .  S
O27          C33   1.276       .  A
O28          C33   1.275       .  A
C29         C629   1.463       .  S
O30          C32   1.270       .  A
O31         Ni42   1.916   1_556  S
C32         C670   1.490       .  S
C32          O38   1.272       .  A
C33         C702   1.486       .  S
H34          O35   0.965       .  S
O35         Ni43   1.917   1_556  S
O35         Ni37   1.898   1_455  S
O35         Ni42   1.904   1_556  S
O36         Ni37   1.928   1_554  S
Ni37         O41   1.901       .  S
Ni37         O39   1.936       .  S
O38         Ni43   1.931   1_556  S
C40         C725   1.468       .  S
C40          O41   1.266       .  A
C45          C46   1.400       .  A
C45          C50   1.403       .  A
C45         C565   1.476       .  S
C46          C47   1.401       .  A
C46          H51   1.084       .  S
C47          C48   1.401       .  A
C47         C597   1.471       .  S
C48          C49   1.398       .  A
C48          H52   1.084       .  S
C49          C50   1.402       .  A
C49         C734   1.472       .  S
C50          H53   1.084       .  S
O54         Ni60   1.929       .  S
O54          C75   1.269       .  A
O55         Ni78   1.927   1_565  S
O55          C64   1.273       .  A
O56         Ni60   1.909   1_556  S
O56         Ni78   1.915       .  S
O56         Ni72   1.911   1_546  S
O56          H79   0.968       .  S
C57         C446   1.469       .  S
C57          O74   1.271       .  A
C57          O66   1.275       .  A
O58         Ni77   1.932       .  S
O58          C64   1.271       .  A
O59         Ni77   1.905       .  S
O59          C61   1.267       .  A
Ni60         O63   1.913   1_554  S
Ni60         O65   1.910       .  S
C61         C510   1.496       .  S
C61          O71   1.275       .  A
O62         Ni78   1.929       .  S
O62          C68   1.278       .  A
O63          C68   1.274       .  A
C64         C894   1.495       .  S
O65          C67   1.271       .  A
O66         Ni77   1.929   1_554  S
C67         C469   1.508       .  S
C67          O73   1.270       .  A
C68         C574   1.474       .  S
H69          O70   0.958       .  S
O70         Ni78   1.918   1_564  S
O70         Ni72   1.916       .  S
O70         Ni77   1.910   1_554  S
O71         Ni72   1.941   1_556  S
Ni72         O76   1.915   1_565  S
Ni72         O74   1.907       .  S
O73         Ni78   1.931   1_554  S
C75         C533   1.485       .  S
C75          O76   1.268       .  A
C80          C81   1.407       .  A
C80          C85   1.407       .  A
C80         C693   1.488       .  S
C81          C82   1.406       .  A
C81          H86   1.084       .  S
C82          C83   1.400       .  A
C82         C542   1.484       .  S
C83          C84   1.404       .  A
C83          H87   1.084       .  S
C84          C85   1.406       .  A
C84         C405   1.484       .  S
C85          H88   1.083       .  S
C89          C90   1.408       .  A
C89          C94   1.411       .  A
C89         C373   1.503       .  S
C90          C91   1.403       .  A
C90          H95   1.084       .  S
C91          C92   1.402       .  A
C91         C501   1.483       .  S
C92          C93   1.403       .  A
C92          H96   1.083       .  S
C93          C94   1.408       .  A
C93         C341   1.483       .  S
C94          H97   1.079       .  S
O98        Ni104   1.928       .  S
O98         C119   1.270       .  A
O99        Ni122   1.918       .  S
O99         C108   1.272   1_455  A
O100       Ni104   1.910   1_565  S
O100       Ni122   1.918       .  S
O100       Ni116   1.924   1_465  S
O100        H123   0.966       .  S
C101        C309   1.490       .  S
C101        O118   1.276       .  A
C101        O110   1.276       .  A
O102       Ni121   1.923   1_565  S
O102        C108   1.269       .  A
O103       Ni121   1.906   1_565  S
O103        C105   1.266       .  A
Ni104       O107   1.924   1_545  S
Ni104       O109   1.897       .  S
C105        C798   1.492       .  S
C105        O115   1.271       .  A
O106       Ni122   1.920       .  S
O106        C112   1.273       .  A
O107        C112   1.273       .  A
C108        C926   1.484       .  S
O109        C111   1.270       .  A
O110       Ni121   1.918       .  S
C111        C277   1.488       .  S
C111        O117   1.279       .  A
C112        C350   1.482       .  S
H113        O114   0.967       .  S
O114       Ni122   1.909   1_645  S
O114       Ni116   1.903       .  S
O114       Ni121   1.908       .  S
O115       Ni116   1.923   1_565  S
Ni116       O120   1.908   1_655  S
Ni116       O118   1.925       .  S
O117       Ni122   1.948   1_545  S
C119        C414   1.473       .  S
C119        O120   1.266       .  A
C124        C125   1.406       .  A
C124        C129   1.407       .  A
C124        C254   1.494       .  S
C125        C126   1.402       .  A
C125        H130   1.083       .  S
C126        C127   1.404       .  A
C126        C318   1.478       .  S
C127        C128   1.402       .  A
C127        H131   1.084       .  S
C128        C129   1.401       .  A
C128        C478   1.480       .  S
C129        H132   1.082       .  S
C133        C134   1.409       .  A
C133        C138   1.401       .  A
C133        C286   1.488       .  S
C134        C135   1.412       .  A
C134        H139   1.082       .  S
C135        C136   1.411       .  A
C135        C222   1.499       .  S
C136        C137   1.405       .  A
C136        H140   1.083       .  S
C137        C138   1.399       .  A
C137        C661   1.485       .  S
C138        H141   1.083       .  S
C142        C143   1.399       .  A
C142        C147   1.399       .  A
C142        C437   1.471       .  S
C143        C144   1.399       .  A
C143        H148   1.084       .  S
C144        C145   1.398       .  A
C144        C181   1.466       .  S
C145        C146   1.398       .  A
C145        H149   1.084       .  S
C146        C147   1.399       .  A
C146        C638   1.467       .  S
C147        H150   1.084       .  S
O151       Ni157   1.923       .  S
O151        C172   1.272       .  A
O152       Ni175   1.915       .  S
O152        C161   1.268       .  A
O153       Ni157   1.902       .  S
O153       Ni175   1.913       .  S
O153       Ni169   1.916       .  S
O153        H176   0.965       .  S
C154        C190   1.482       .  S
C154        O171   1.278       .  A
C154        O163   1.274       .  A
O155       Ni174   1.917       .  S
O155        C161   1.269       .  A
O156       Ni174   1.901       .  S
O156        C158   1.269       .  A
Ni157       O160   1.915       .  S
Ni157       O162   1.911       .  S
C158        C821   1.512       .  S
C158        O168   1.277       .  A
O159       Ni175   1.925       .  S
O159        C165   1.277       .  A
O160        C165   1.275       .  A
C161        C245   1.491       .  S
O162        C164   1.268       .  A
O163       Ni174   1.907       .  S
C164        C213   1.493       .  S
C164        O170   1.272       .  A
C165        C606   1.483       .  S
H166        O167   0.966       .  S
O167       Ni175   1.908       .  S
O167       Ni169   1.911       .  S
O167       Ni174   1.899       .  S
O168       Ni169   1.949       .  S
Ni169       O173   1.937       .  S
Ni169       O171   1.927       .  S
O170       Ni175   1.932       .  S
C172        C382   1.510       .  S
C172        O173   1.276       .  A
C177        C178   1.401       .  A
C177        C182   1.402       .  A
C177        H187   1.083       .  S
C178        C179   1.415       .  A
C178        C183   1.473       .  S
C179        C180   1.403       .  A
C179        C184   1.519       .  S
C180        C181   1.400       .  A
C180        H185   1.083       .  S
C181        C182   1.413       .  A
C182        C186   1.518       .  S
C183        C188   1.413       .  A
C183        C192   1.398       .  A
C184        F200   1.382       .  S
C184        F201   1.382       .  S
C184        F202   1.385       .  S
C186        F197   1.385       .  S
C186        F198   1.382       .  S
C186        F199   1.383       .  S
C188        C189   1.401       .  A
C188        C193   1.520       .  S
C189        C190   1.406       .  A
C189        H194   1.083       .  S
C190        C191   1.416       .  A
C191        C192   1.403       .  A
C191        C195   1.508       .  S
C192        H196   1.083       .  S
C193        F206   1.385       .  S
C193        F207   1.382       .  S
C193        F208   1.382       .  S
C195        F203   1.385       .  S
C195        F204   1.384       .  S
C195        F205   1.382       .  S
C209        C210   1.402       .  A
C209        C214   1.410       .  A
C209        H219   1.083       .  S
C210        C211   1.416       .  A
C210        C215   1.494       .  S
C211        C212   1.412       .  A
C211        C216   1.519       .  S
C212        C213   1.408       .  A
C212        H217   1.083       .  S
C213        C214   1.423       .  A
C214        C218   1.521       .  S
C215        C220   1.416       .  A
C215        C224   1.403       .  A
C216        F232   1.383       .  S
C216        F233   1.381       .  S
C216        F234   1.384       .  S
C218        F229   1.384       .  S
C218        F230   1.385       .  S
C218        F231   1.382       .  S
C220        C221   1.409       .  A
C220        C225   1.521       .  S
C221        C222   1.407       .  A
C221        H226   1.083       .  S
C222        C223   1.423       .  A
C223        C224   1.414       .  A
C223        C227   1.519       .  S
C224        H228   1.083       .  S
C225        F238   1.384       .  S
C225        F239   1.383       .  S
C225        F240   1.381       .  S
C227        F235   1.385       .  S
C227        F236   1.383       .  S
C227        F237   1.381       .  S
C241        C242   1.402       .  A
C241        C246   1.410       .  A
C241        H251   1.083       .  S
C242        C243   1.411       .  A
C242        C247   1.478       .  S
C243        C244   1.401       .  A
C243        C248   1.524       .  S
C244        C245   1.411       .  A
C244        H249   1.082       .  S
C245        C246   1.423       .  A
C246        C250   1.521       .  S
C247        C252   1.414       .  A
C247        C256   1.398       .  A
C248        F264   1.383       .  S
C248        F265   1.380       .  S
C248        F266   1.384       .  S
C250        F261   1.377       .  S
C250        F262   1.384       .  S
C250        F263   1.384       .  S
C252        C253   1.406       .  A
C252        C257   1.522       .  S
C253        C254   1.409       .  A
C253        H258   1.082       .  S
C254        C255   1.424       .  A
C255        C256   1.404       .  A
C255        C259   1.519       .  S
C256        H260   1.085       .  S
C257        F270   1.384       .  S
C257        F271   1.383       .  S
C257        F272   1.381       .  S
C259        F267   1.384       .  S
C259        F268   1.383       .  S
C259        F269   1.383       .  S
C273        C274   1.406       .  A
C273        C278   1.413       .  A
C273        H283   1.083       .  S
C274        C275   1.415       .  A
C274        C279   1.490       .  S
C275        C276   1.403       .  A
C275        C280   1.520       .  S
C276        C277   1.406       .  A
C276        H281   1.083       .  S
C277        C278   1.418       .  A
C278        C282   1.517       .  S
C279        C284   1.418       .  A
C279        C288   1.401       .  A
C280        F296   1.381       .  S
C280        F297   1.382       .  S
C280        F298   1.385       .  S
C282        F293   1.385       .  S
C282        F294   1.383       .  S
C282        F295   1.383       .  S
C284        C285   1.412       .  A
C284        C289   1.519       .  S
C285        C286   1.405       .  A
C285        H290   1.083       .  S
C286        C287   1.420       .  A
C287        C288   1.406       .  A
C287        C291   1.519       .  S
C288        H292   1.083       .  S
C289        F302   1.385       .  S
C289        F303   1.382       .  S
C289        F304   1.382       .  S
C291        F299   1.385       .  S
C291        F300   1.382       .  S
C291        F301   1.383       .  S
C305        C306   1.401       .  A
C305        C310   1.408       .  A
C305        H315   1.083       .  S
C306        C307   1.414       .  A
C306        C311   1.484       .  S
C307        C308   1.406       .  A
C307        C312   1.521       .  S
C308        C309   1.409       .  A
C308        H313   1.083       .  S
C309        C310   1.421       .  A
C310        C314   1.518       .  S
C311        C316   1.416       .  A
C311        C320   1.404       .  A
C312        F328   1.382       .  S
C312        F329   1.381       .  S
C312        F330   1.385       .  S
C314        F325   1.385       .  S
C314        F326   1.383       .  S
C314        F327   1.381       .  S
C316        C317   1.407       .  A
C316        C321   1.519       .  S
C317        C318   1.403       .  A
C317        H322   1.083       .  S
C318        C319   1.413       .  A
C319        C320   1.406       .  A
C319        C323   1.517       .  S
C320        H324   1.083       .  S
C321        F334   1.385       .  S
C321        F335   1.382       .  S
C321        F336   1.382       .  S
C323        F331   1.385       .  S
C323        F332   1.382       .  S
C323        F333   1.383       .  S
C337        C338   1.401       .  A
C337        C342   1.407       .  A
C337        H347   1.085       .  S
C338        C339   1.417       .  A
C338        C343   1.490       .  S
C339        C340   1.411       .  A
C339        C344   1.519       .  S
C340        C341   1.403       .  A
C340        H345   1.083       .  S
C341        C342   1.421       .  A
C342        C346   1.520       .  S
C343        C348   1.417       .  A
C343        C352   1.403       .  A
C344        F360   1.382       .  S
C344        F361   1.381       .  S
C344        F362   1.385       .  S
C346        F357   1.381       .  S
C346        F358   1.383       .  S
C346        F359   1.384       .  S
C348        C349   1.409       .  A
C348        C353   1.519       .  S
C349        C350   1.403       .  A
C349        H354   1.083       .  S
C350        C351   1.418       .  A
C351        C352   1.409       .  A
C351        C355   1.518   1_565  S
C352        H356   1.083       .  S
C353        F366   1.385       .  S
C353        F367   1.382       .  S
C353        F368   1.381       .  S
C355        F363   1.382   1_545  S
C355        F364   1.382       .  S
C355        F365   1.384       .  S
C369        C370   1.405       .  A
C369        C374   1.411       .  A
C369        H379   1.083       .  S
C370        C371   1.419       .  A
C370        C375   1.502       .  S
C371        C372   1.410       .  A
C371        C376   1.521       .  S
C372        C373   1.409       .  A
C372        H377   1.083       .  S
C373        C374   1.423       .  A
C374        C378   1.522       .  S
C375        C380   1.417       .  A
C375        C384   1.406       .  A
C376        F392   1.380       .  S
C376        F393   1.383       .  S
C376        F394   1.385       .  S
C378        F389   1.385       .  S
C378        F390   1.380       .  S
C378        F391   1.384       .  S
C380        C381   1.406       .  A
C380        C385   1.523       .  S
C381        C382   1.413       .  A
C381        H386   1.082       .  S
C382        C383   1.423       .  A
C383        C384   1.416       .  A
C383        C387   1.515       .  S
C384        H388   1.081       .  S
C385        F398   1.385       .  S
C385        F399   1.380       .  S
C385        F400   1.384       .  S
C387        F395   1.372       .  S
C387        F396   1.383       .  S
C387        F397   1.384       .  S
C401        C402   1.404       .  A
C401        C406   1.412       .  A
C401        H411   1.083       .  S
C402        C403   1.417       .  A
C402        C407   1.485       .  S
C403        C404   1.402       .  A
C403        C408   1.522       .  S
C404        C405   1.401       .  A
C404        H409   1.083       .  S
C405        C406   1.419       .  A
C406        C410   1.517       .  S
C407        C412   1.416       .  A
C407        C416   1.402       .  A
C408        F424   1.382       .  S
C408        F425   1.382       .  S
C408        F426   1.384       .  S
C410        F421   1.381       .  S
C410        F422   1.385       .  S
C410        F423   1.383       .  S
C412        C413   1.407       .  A
C412        C417   1.518       .  S
C413        C414   1.402       .  A
C413        H418   1.083       .  S
C414        C415   1.415       .  A
C415        C416   1.406       .  A
C415        C419   1.518   1_545  S
C416        H420   1.083       .  S
C417        F430   1.385       .  S
C417        F431   1.383       .  S
C417        F432   1.382       .  S
C419        F427   1.385       .  S
C419        F428   1.383       .  S
C419        F429   1.383       .  S
C433        C434   1.401       .  A
C433        C438   1.405       .  A
C433        H443   1.083       .  S
C434        C435   1.416       .  A
C434        C439   1.478       .  S
C435        C436   1.403       .  A
C435        C440   1.520       .  S
C436        C437   1.400       .  A
C436        H441   1.084       .  S
C437        C438   1.415       .  A
C438        C442   1.518       .  S
C439        C444   1.416       .  A
C439        C448   1.401       .  A
C440        F456   1.382       .  S
C440        F457   1.382       .  S
C440        F458   1.385       .  S
C442        F453   1.382       .  S
C442        F454   1.384       .  S
C442        F455   1.383       .  S
C444        C445   1.405       .  A
C444        C449   1.520       .  S
C445        C446   1.401       .  A
C445        H450   1.083       .  S
C446        C447   1.414       .  A
C447        C448   1.405       .  A
C447        C451   1.517       .  S
C448        H452   1.083       .  S
C449        F462   1.384       .  S
C449        F463   1.382       .  S
C449        F464   1.382       .  S
C451        F459   1.383       .  S
C451        F460   1.383       .  S
C451        F461   1.384       .  S
C465        C466   1.399       .  A
C465        C470   1.413       .  A
C465        H475   1.083       .  S
C466        C467   1.412       .  A
C466        C471   1.487       .  S
C467        C468   1.405       .  A
C467        C472   1.522       .  S
C468        C469   1.413       .  A
C468        H473   1.081       .  S
C469        C470   1.431       .  A
C470        C474   1.521       .  S
C471        C476   1.417       .  A
C471        C480   1.404       .  A
C472        F488   1.382       .  S
C472        F489   1.382       .  S
C472        F490   1.385       .  S
C474        F485   1.385       .  S
C474        F486   1.383       .  S
C474        F487   1.383   1_545  S
C476        C477   1.407       .  A
C476        C481   1.519       .  S
C477        C478   1.403       .  A
C477        H482   1.083       .  S
C478        C479   1.414       .  A
C479        C480   1.408       .  A
C479        C483   1.516       .  S
C480        H484   1.083       .  S
C481        F494   1.384       .  S
C481        F495   1.382       .  S
C481        F496   1.382       .  S
C483        F491   1.383       .  S
C483        F492   1.382       .  S
C483        F493   1.384       .  S
C497        C498   1.403       .  A
C497        C502   1.409       .  A
C497        H507   1.083       .  S
C498        C499   1.418       .  A
C498        C503   1.487       .  S
C499        C500   1.408       .  A
C499        C504   1.521       .  S
C500        C501   1.403       .  A
C500        H505   1.083       .  S
C501        C502   1.416       .  A
C502        C506   1.518       .  S
C503        C508   1.413       .  A
C503        C512   1.399       .  A
C504        F520   1.382       .  S
C504        F521   1.381       .  S
C504        F522   1.385       .  S
C506        F517   1.384       .  S
C506        F518   1.383       .  S
C506        F519   1.381       .  S
C508        C509   1.412       .  A
C508        C513   1.518       .  S
C509        C510   1.411       .  A
C509        H514   1.083       .  S
C510        C511   1.426       .  A
C511        C512   1.406       .  A
C511        C515   1.522       .  S
C512        H516   1.083       .  S
C513        F526   1.384   1_565  S
C513        F527   1.383       .  S
C513        F528   1.381   1_565  S
C515        F523   1.384       .  S
C515        F524   1.382       .  S
C515        F525   1.385       .  S
C529        C530   1.400       .  A
C529        C534   1.406       .  A
C529        H539   1.083       .  S
C530        C531   1.419       .  A
C530        C535   1.491       .  S
C531        C532   1.412       .  A
C531        C536   1.518       .  S
C532        C533   1.405       .  A
C532        H537   1.083       .  S
C533        C534   1.419       .  A
C534        C538   1.519       .  S
C535        C540   1.419       .  A
C535        C544   1.403       .  A
C536        F552   1.382       .  S
C536        F553   1.383       .  S
C536        F554   1.385   1_545  S
C538        F549   1.382       .  S
C538        F550   1.385       .  S
C538        F551   1.384   1_554  S
C540        C541   1.409       .  A
C540        C545   1.519       .  S
C541        C542   1.402       .  A
C541        H546   1.083       .  S
C542        C543   1.415       .  A
C543        C544   1.409       .  A
C543        C547   1.517       .  S
C544        H548   1.083       .  S
C545        F558   1.385       .  S
C545        F559   1.382       .  S
C545        F560   1.383       .  S
C547        F555   1.385       .  S
C547        F556   1.382       .  S
C547        F557   1.383       .  S
C561        C562   1.402       .  A
C561        C566   1.407       .  A
C561        H571   1.083       .  S
C562        C563   1.418       .  A
C562        C567   1.482       .  S
C563        C564   1.404       .  A
C563        C568   1.520       .  S
C564        C565   1.400       .  A
C564        H569   1.083       .  S
C565        C566   1.416       .  A
C566        C570   1.518       .  S
C567        C572   1.414       .  A
C567        C576   1.402       .  A
C568        F584   1.382       .  S
C568        F585   1.382       .  S
C568        F586   1.385       .  S
C570        F581   1.385       .  S
C570        F582   1.383       .  S
C570        F583   1.382       .  S
C572        C573   1.407       .  A
C572        C577   1.520       .  S
C573        C574   1.404       .  A
C573        H578   1.083       .  S
C574        C575   1.415       .  A
C575        C576   1.407       .  A
C575        C579   1.517       .  S
C576        H580   1.083       .  S
C577        F590   1.385       .  S
C577        F591   1.382       .  S
C577        F592   1.382       .  S
C579        F587   1.384       .  S
C579        F588   1.383       .  S
C579        F589   1.383   1_556  S
C593        C594   1.399       .  A
C593        C598   1.401       .  A
C593        H603   1.085       .  S
C594        C595   1.415       .  A
C594        C599   1.476       .  S
C595        C596   1.404       .  A
C595        C600   1.520       .  S
C596        C597   1.403       .  A
C596        H601   1.083       .  S
C597        C598   1.418       .  A
C598        C602   1.520       .  S
C599        C604   1.413       .  A
C599        C608   1.398       .  A
C600        F616   1.382       .  S
C600        F617   1.382       .  S
C600        F618   1.385       .  S
C602        F613   1.383       .  S
C602        F614   1.384       .  S
C602        F615   1.381       .  S
C604        C605   1.404       .  A
C604        C609   1.520       .  S
C605        C606   1.407       .  A
C605        H610   1.083       .  S
C606        C607   1.419       .  A
C607        C608   1.404       .  A
C607        C611   1.513       .  S
C608        H612   1.083       .  S
C609        F622   1.384       .  S
C609        F623   1.382       .  S
C609        F624   1.382       .  S
C611        F619   1.385       .  S
C611        F620   1.382       .  S
C611        F621   1.384       .  S
C625        C626   1.401       .  A
C625        C630   1.403       .  A
C625        H635   1.083       .  S
C626        C627   1.414       .  A
C626        C631   1.471       .  S
C627        C628   1.400       .  A
C627        C632   1.521       .  S
C628        C629   1.402       .  A
C628        H633   1.084       .  S
C629        C630   1.413       .  A
C630        C634   1.517       .  S
C631        C636   1.416       .  A
C631        C640   1.400       .  A
C632        F648   1.382       .  S
C632        F649   1.382       .  S
C632        F650   1.385       .  S
C634        F645   1.384       .  S
C634        F646   1.384       .  S
C634        F647   1.382       .  S
C636        C637   1.402       .  A
C636        C641   1.521       .  S
C637        C638   1.400       .  A
C637        H642   1.083       .  S
C638        C639   1.413       .  A
C639        C640   1.403       .  A
C639        C643   1.517       .  S
C640        H644   1.083       .  S
C641        F654   1.385       .  S
C641        F655   1.382       .  S
C641        F656   1.382       .  S
C643        F651   1.384       .  S
C643        F652   1.383       .  S
C643        F653   1.382       .  S
C657        C658   1.401       .  A
C657        C662   1.408       .  A
C657        H667   1.083       .  S
C658        C659   1.417       .  A
C658        C663   1.485       .  S
C659        C660   1.408       .  A
C659        C664   1.520       .  S
C660        C661   1.403       .  A
C660        H665   1.083       .  S
C661        C662   1.420       .  A
C662        C666   1.519       .  S
C663        C668   1.414       .  A
C663        C672   1.399       .  A
C664        F680   1.382       .  S
C664        F681   1.383       .  S
C664        F682   1.384       .  S
C666        F677   1.385       .  S
C666        F678   1.381       .  S
C666        F679   1.383       .  S
C668        C669   1.407       .  A
C668        C673   1.520       .  S
C669        C670   1.409       .  A
C669        H674   1.083       .  S
C670        C671   1.422       .  A
C671        C672   1.407       .  A
C671        C675   1.517       .  S
C672        H676   1.083       .  S
C673        F686   1.385       .  S
C673        F687   1.382       .  S
C673        F688   1.382       .  S
C675        F683   1.382       .  S
C675        F684   1.382       .  S
C675        F685   1.385       .  S
C689        C690   1.405       .  A
C689        C694   1.409       .  A
C689        H699   1.083       .  S
C690        C691   1.419       .  A
C690        C695   1.494       .  S
C691        C692   1.414       .  A
C691        C696   1.520       .  S
C692        C693   1.404       .  A
C692        H697   1.083       .  S
C693        C694   1.415       .  A
C694        C698   1.517       .  S
C695        C700   1.420       .  A
C695        C704   1.404       .  A
C696        F712   1.382       .  S
C696        F713   1.380       .  S
C696        F714   1.385       .  S
C698        F709   1.384       .  S
C698        F710   1.383       .  S
C698        F711   1.382       .  S
C700        C701   1.414       .  A
C700        C705   1.520       .  S
C701        C702   1.405       .  A
C701        H706   1.083       .  S
C702        C703   1.416       .  A
C703        C704   1.409       .  A
C703        C707   1.518       .  S
C704        H708   1.083       .  S
C705        F718   1.385       .  S
C705        F719   1.382       .  S
C705        F720   1.380       .  S
C707        F715   1.382   1_455  S
C707        F716   1.383       .  S
C707        F717   1.384       .  S
C721        C722   1.400       .  A
C721        C726   1.402       .  A
C721        H731   1.084       .  S
C722        C723   1.414       .  A
C722        C727   1.476       .  S
C723        C724   1.406       .  A
C723        C728   1.519       .  S
C724        C725   1.402       .  A
C724        H729   1.082       .  S
C725        C726   1.415       .  A
C726        C730   1.519   1_556  S
C727        C732   1.417       .  A
C727        C736   1.401       .  A
C728        F744   1.382       .  S
C728        F745   1.382       .  S
C728        F746   1.385       .  S
C730        F741   1.382   1_554  S
C730        F742   1.385       .  S
C730        F743   1.384       .  S
C732        C733   1.403       .  A
C732        C737   1.522       .  S
C733        C734   1.399       .  A
C733        H738   1.083       .  S
C734        C735   1.414       .  A
C735        C736   1.406       .  A
C735        C739   1.517       .  S
C736        H740   1.083       .  S
C737        F750   1.384       .  S
C737        F751   1.382       .  S
C737        F752   1.381       .  S
C739        F747   1.384       .  S
C739        F748   1.383       .  S
C739        F749   1.383       .  S
C753        C754   1.398       .  A
C753        C758   1.404       .  A
C753        H763   1.084       .  S
C754        C755   1.413       .  A
C754        C759   1.482       .  S
C755        C756   1.409       .  A
C755        C760   1.519       .  S
C756        C757   1.408       .  A
C756        H761   1.083       .  S
C757        C758   1.423       .  A
C758        C762   1.521       .  S
C759        C764   1.416       .  A
C759        C768   1.401       .  A
C760        F776   1.383       .  S
C760        F777   1.382       .  S
C760        F778   1.385       .  S
C762        F773   1.385       .  S
C762        F774   1.382       .  S
C762        F775   1.382   1_655  S
C764        C765   1.407       .  A
C764        C769   1.521       .  S
C765        C766   1.403       .  A
C765        H770   1.083       .  S
C766        C767   1.419       .  A
C767        C768   1.407       .  A
C767        C771   1.521       .  S
C768        H772   1.083       .  S
C769        F782   1.384       .  S
C769        F783   1.382       .  S
C769        F784   1.381       .  S
C771        F779   1.384       .  S
C771        F780   1.381       .  S
C771        F781   1.384       .  S
C785        C786   1.402       .  A
C785        C790   1.406       .  A
C785        H795   1.083       .  S
C786        C787   1.417       .  A
C786        C791   1.484       .  S
C787        C788   1.407       .  A
C787        C792   1.519       .  S
C788        C789   1.402       .  A
C788        H793   1.083       .  S
C789        C790   1.417       .  A
C790        C794   1.519       .  S
C791        C796   1.414       .  A
C791        C800   1.399       .  A
C792        F808   1.382       .  S
C792        F809   1.382       .  S
C792        F810   1.385       .  S
C794        F805   1.383       .  S
C794        F806   1.385       .  S
C794        F807   1.381       .  S
C796        C797   1.408       .  A
C796        C801   1.519       .  S
C797        C798   1.409       .  A
C797        H802   1.083       .  S
C798        C799   1.425       .  A
C799        C800   1.405       .  A
C799        C803   1.521       .  S
C800        H804   1.083       .  S
C801        F814   1.385       .  S
C801        F815   1.382       .  S
C801        F816   1.382       .  S
C803        F811   1.385       .  S
C803        F812   1.383       .  S
C803        F813   1.384       .  S
C817        C818   1.399       .  A
C817        C822   1.412       .  A
C817        H827   1.083       .  S
C818        C819   1.411       .  A
C818        C823   1.488       .  S
C819        C820   1.407       .  A
C819        C824   1.523       .  S
C820        C821   1.417       .  A
C820        H825   1.081       .  S
C821        C822   1.428       .  A
C822        C826   1.515       .  S
C823        C828   1.417       .  A
C823        C832   1.405       .  A
C824        F840   1.382       .  S
C824        F841   1.383       .  S
C824        F842   1.384       .  S
C826        F837   1.380       .  S
C826        F838   1.384       .  S
C826        F839   1.383       .  S
C828        C829   1.405       .  A
C828        C833   1.519       .  S
C829        C830   1.401       .  A
C829        H834   1.084       .  S
C830        C831   1.414       .  A
C831        C832   1.409       .  A
C831        C835   1.517       .  S
C832        H836   1.083       .  S
C833        F846   1.385       .  S
C833        F847   1.382       .  S
C833        F848   1.382       .  S
C835        F843   1.385       .  S
C835        F844   1.383       .  S
C835        F845   1.382       .  S
C849        C850   1.403       .  A
C849        C854   1.409       .  A
C849        H859   1.083       .  S
C850        C851   1.416       .  A
C850        C855   1.489       .  S
C851        C852   1.411       .  A
C851        C856   1.520       .  S
C852        C853   1.406       .  A
C852        H857   1.083       .  S
C853        C854   1.416       .  A
C854        C858   1.517       .  S
C855        C860   1.416       .  A
C855        C864   1.403       .  A
C856        F872   1.382       .  S
C856        F873   1.382       .  S
C856        F874   1.384       .  S
C858        F869   1.384       .  S
C858        F870   1.382       .  S
C858        F871   1.383       .  S
C860        C861   1.408       .  A
C860        C865   1.522   1_655  S
C861        C862   1.408       .  A
C861        H866   1.083   1_655  S
C862        C863   1.420       .  A
C863        C864   1.411       .  A
C863        C867   1.518       .  S
C864        H868   1.083       .  S
C865        F878   1.385       .  S
C865        F879   1.382       .  S
C865        F880   1.381   1_455  S
C867        F875   1.382   1_556  S
C867        F876   1.381       .  S
C867        F877   1.384       .  S
C881        C882   1.404       .  A
C881        C886   1.412       .  A
C881        H891   1.083       .  S
C882        C883   1.420       .  A
C882        C887   1.498       .  S
C883        C884   1.413       .  A
C883        C888   1.519       .  S
C884        C885   1.403       .  A
C884        H889   1.083       .  S
C885        C886   1.418       .  A
C886        C890   1.519       .  S
C887        C892   1.420       .  A
C887        C896   1.401       .  A
C888        F904   1.382   1_556  S
C888        F905   1.382       .  S
C888        F906   1.385   1_556  S
C890        F901   1.384       .  S
C890        F902   1.383       .  S
C890        F903   1.381       .  S
C892        C893   1.416       .  A
C892        C897   1.518       .  S
C893        C894   1.406       .  A
C893        H898   1.083       .  S
C894        C895   1.423       .  A
C895        C896   1.409       .  A
C895        C899   1.520       .  S
C896        H900   1.083       .  S
C897        F910   1.385   1_565  S
C897        F911   1.382       .  S
C897        F912   1.382       .  S
C899        F907   1.385   1_556  S
C899        F908   1.382       .  S
C899        F909   1.384   1_556  S
C913        C914   1.401       .  A
C913        C918   1.405       .  A
C913        H923   1.083       .  S
C914        C915   1.417       .  A
C914        C919   1.486       .  S
C915        C916   1.411       .  A
C915        C920   1.519       .  S
C916        C917   1.406       .  A
C916        H921   1.083       .  S
C917        C918   1.419       .  A
C918        C922   1.521       .  S
C919        C924   1.416       .  A
C919        C928   1.400       .  A
C920        F936   1.382       .  S
C920        F937   1.382       .  S
C920        F938   1.384       .  S
C922        F933   1.381       .  S
C922        F934   1.384       .  S
C922        F935   1.383       .  S
C924        C925   1.410       .  A
C924        C929   1.518   1_655  S
C925        C926   1.405       .  A
C925        H930   1.083   1_655  S
C926        C927   1.422       .  A
C927        C928   1.405       .  A
C927        C931   1.521       .  S
C928        H932   1.084       .  S
C929        F942   1.385       .  S
C929        F943   1.382       .  S
C929        F944   1.381       .  S
C931        F939   1.383       .  S
C931        F940   1.383   1_565  S
C931        F941   1.385       .  S
