geometry optimzed in LAMMPS
_audit_creation_date              2020-11-30 
_audit_creation_method            'lammps2cif' 
_symmetry_space_group_name_H-M    'P1' 
_symmetry_Int_Tables_number       1 
_symmetry_cell_setting            triclinic 
loop_ 
_symmetry_equiv_pos_as_xyz 
  x,y,z 
_cell_length_a                    35.09434103 
_cell_length_b                    31.526206904745784 
_cell_length_c                    35.00765017371731 
_cell_angle_alpha                 97.94532376789735 
_cell_angle_beta                  69.8790083184802 
_cell_angle_gamma                 96.73618323952313 
loop_ 
_atom_site_label 
_atom_site_type_symbol 
_atom_site_fract_x 
_atom_site_fract_y 
_atom_site_fract_z 
_atom_site_charge 
O1          O  0.96188416  0.03599628  0.10547615    -0.80200
O2          O  0.98897846  0.02149790  0.91585580    -0.64900
O3          O  0.96418581  0.99816584  0.02639685    -1.11500
C4          C  0.10755885  0.99316595  0.98620532     1.06600
O5          O  0.03050012  0.96934245  0.89133386    -0.78100
O6          O  0.04588916  0.92258877  0.94249320    -0.65700
Ni7        Ni  0.93012603  0.03492484  0.06999018     1.34900
C8          C  0.02788420  0.91115787  0.97808084     0.85400
O9          O  0.91922364  0.00809265  0.97657996    -0.78700
O10         O  0.89247292  0.03672974  0.04132354    -0.89000
C11         C  0.00943852  0.99671775  0.88600967     0.85000
O12         O  0.95865671  0.08737930  0.05141709    -0.67200
O13         O  0.10662141  0.98342018  0.94992846    -0.86400
C14         C  0.97337667  0.09877261  0.01552229     0.85800
C15         C  0.88954578  0.02253504  0.00650255     1.07400
H16         H  0.04290619  0.04128804  0.96608696     0.39200
O17         O  0.03091605  0.01212190  0.96789182    -1.09100
O18         O  0.01766010  0.93786405  0.00987576    -0.65800
Ni19       Ni  0.01996420  0.99910799  0.02247189     1.26300
O20         O  0.97727447  0.07238941  0.98363390    -0.66000
O21         O  0.07609598  0.00078146  0.01718924    -0.78300
C22         C  0.98492514  0.00937621  0.10862150     0.85200
O23         O  0.00690050  0.98722094  0.07758242    -0.65500
Ni24       Ni  0.06632006  0.97745987  0.92341024     1.27400
Ni25       Ni  0.97534087  0.01066151  0.97148125     1.26100
H26         H  0.95160876  0.96925983  0.02886735     0.39700
O27         O  0.95850127  0.02638880  0.60713639    -0.80200
O28         O  0.98031614  0.01365833  0.41849256    -0.64900
O29         O  0.96494264  0.99316583  0.52740892    -1.11500
C30         C  0.10973491  0.99982685  0.47867395     1.06600
O31         O  0.02519497  0.96495513  0.39039901    -0.78100
O32         O  0.04636832  0.92244666  0.44102071    -0.65700
Ni33       Ni  0.93029060  0.03074147  0.56977402     1.34900
C34         C  0.03283430  0.91147997  0.47711367     0.85400
O35         O  0.91522126  0.99557156  0.48161251    -0.78700
O36         O  0.89459034  0.03793682  0.53971809    -0.89000
C37         C  0.00034141  0.98982163  0.38777867     0.85000
O38         O  0.96449767  0.08030856  0.55065754    -0.67200
O39         O  0.10651016  0.98643032  0.44371207    -0.86400
C40         C  0.97353887  0.09174931  0.51500357     0.85800
C41         C  0.88795512  0.01638040  0.50879046     1.07400
H42         H  0.03817462  0.03997939  0.46237392     0.39200
O43         O  0.02822123  0.01033469  0.46558298    -1.09100
O44         O  0.02448309  0.93865594  0.50880153    -0.65800
Ni45       Ni  0.02222342  0.00027761  0.51984717     1.26300
O46         O  0.96986856  0.06553332  0.48506382    -0.66000
O47         O  0.07932888  0.00799381  0.51065959    -0.78300
C48         C  0.98870507  0.00789686  0.60736873     0.85200
O49         O  0.01484915  0.99218446  0.57495039    -0.65500
Ni50       Ni  0.06354424  0.97674708  0.42011551     1.27400
Ni51       Ni  0.97175666  0.00370814  0.47307807     1.26100
H52         H  0.95444145  0.96377436  0.53135605     0.39700
O53         O  0.96773242  0.53631564  0.10705677    -0.80200
O54         O  0.98575860  0.51748693  0.91928028    -0.64900
O55         O  0.96821446  0.49601128  0.02928675    -1.11500
C56         C  0.11275951  0.50083600  0.98361473     1.06600
O57         O  0.03035385  0.46831531  0.89368713    -0.78100
O58         O  0.05076089  0.42515220  0.94339627    -0.65700
Ni59       Ni  0.93283835  0.53025194  0.07425219     1.34900
C60         C  0.03632901  0.41392811  0.97931332     0.85400
O61         O  0.91860185  0.50146265  0.98237618    -0.78700
O62         O  0.89225956  0.52663117  0.04835704    -0.89000
C63         C  0.00705706  0.49362693  0.88904891     0.85000
O64         O  0.95550778  0.58441605  0.05495312    -0.67200
O65         O  0.11020140  0.48914541  0.94813249    -0.86400
C66         C  0.96777588  0.59583260  0.01904740     0.85800
C67         C  0.88876349  0.51314448  0.01364338     1.07400
H68         H  0.04218355  0.54311059  0.96635515     0.39200
O69         O  0.03204385  0.51339568  0.96881287    -1.09100
O70         O  0.02700046  0.44057663  0.01115779    -0.65800
Ni71       Ni  0.02495203  0.50177751  0.02303714     1.26300
O72         O  0.97340242  0.56916942  0.98711163    -0.66000
O73         O  0.08189993  0.50838656  0.01532984    -0.78300
C74         C  0.99238635  0.51111765  0.10932477     0.85200
O75         O  0.01546236  0.49076300  0.07772809    -0.65500
Ni76       Ni  0.06801145  0.48000726  0.92366854     1.27400
Ni77       Ni  0.97550686  0.50767295  0.97481041     1.26100
H78         H  0.95789797  0.46638418  0.03193450     0.39700
O79         O  0.97676336  0.53725379  0.60177997    -0.80200
O80         O  0.99012207  0.51241706  0.41689975    -0.64900
O81         O  0.97248086  0.49425048  0.52704363    -1.11500
C82         C  0.11693213  0.49076694  0.47787421     1.06600
O83         O  0.03051429  0.45937712  0.39245475    -0.78100
O84         O  0.05456006  0.41714869  0.44138050    -0.65700
Ni85       Ni  0.94037287  0.53226680  0.57069130     1.34900
C86         C  0.03755923  0.40639840  0.47736499     0.85400
O87         O  0.92295974  0.50129868  0.48074825    -0.78700
O88         O  0.89883404  0.52986393  0.54588464    -0.89000
C89         C  0.00899870  0.48644749  0.38735538     0.85000
O90         O  0.96617786  0.58442014  0.54865409    -0.67200
O91         O  0.11404436  0.48144187  0.44227963    -0.86400
C92         C  0.97921311  0.59407464  0.51213439     0.85800
C93         C  0.89397525  0.51475568  0.51200988     1.07400
H94         H  0.04815686  0.53542064  0.46234481     0.39200
O95         O  0.03649798  0.50623271  0.46528077    -1.09100
O96         O  0.02633385  0.43356778  0.50874645    -0.65800
Ni97       Ni  0.02923112  0.49517934  0.51956370     1.26300
O98         O  0.98230469  0.56618509  0.48148974    -0.66000
O99         O  0.08640133  0.49666976  0.51040452    -0.78300
C100        C  0.99885081  0.50996511  0.60548065     0.85200
O101        O  0.01938517  0.48596075  0.57495888    -0.65500
Ni102      Ni  0.07043936  0.47143306  0.41993883     1.27400
Ni103      Ni  0.97996493  0.50424219  0.47228335     1.26100
H104        H  0.95993204  0.46551697  0.53113185     0.39700
O105        O  0.46114862  0.02535329  0.11150884    -0.80200
O106        O  0.48144602  0.00692837  0.92301824    -0.64900
O107        O  0.46234279  0.98684616  0.03334919    -1.11500
C108        C  0.60747098  0.98969723  0.98621558     1.06600
O109        O  0.52308413  0.95498202  0.89887965    -0.78100
O110        O  0.54859793  0.91377367  0.94744644    -0.65700
Ni111      Ni  0.42841988  0.02362812  0.07686058     1.34900
C112        C  0.53057404  0.90198227  0.98288457     0.85400
O113        O  0.41418296  0.99244424  0.98571574    -0.78700
O114        O  0.38951998  0.02478855  0.04917588    -0.89000
C115        C  0.50054034  0.98084150  0.89362912     0.85000
O116        O  0.45695092  0.07552860  0.05694191    -0.67200
O117        O  0.60490517  0.98077277  0.95048822    -0.86400
C118        C  0.46841006  0.08662792  0.02099771     0.85800
C119        C  0.38518017  0.00810068  0.01547097     1.07400
H120        H  0.53751909  0.03149096  0.97071651     0.39200
O121        O  0.52680968  0.00191604  0.97283200    -1.09100
O122        O  0.51766149  0.92823298  0.01470663    -0.65800
Ni123      Ni  0.51909314  0.98972343  0.02691079     1.26300
O124        O  0.47028321  0.05983846  0.98970481    -0.66000
O125        O  0.57646916  0.99317408  0.01872334    -0.78300
C126        C  0.48726493  0.00160670  0.11335837     0.85200
O127        O  0.50906297  0.97952941  0.08203110    -0.65500
Ni128      Ni  0.56222780  0.96880171  0.92723497     1.27400
Ni129      Ni  0.47065825  0.99786209  0.97858545     1.26100
H130        H  0.45051503  0.95776450  0.03672356     0.39700
O131        O  0.45440703  0.01979522  0.61333580    -0.80200
O132        O  0.48497812  0.01421816  0.42285289    -0.64900
O133        O  0.46074424  0.98792249  0.53222536    -1.11500
C134        C  0.60582378  0.98898109  0.48835139     1.06600
O135        O  0.52337223  0.95966428  0.39929364    -0.78100
O136        O  0.54722316  0.91546712  0.44690150    -0.65700
Ni137      Ni  0.42536852  0.02331460  0.57602295     1.34900
C138        C  0.52837372  0.90291177  0.48188155     0.85400
O139        O  0.41562262  0.99810913  0.48236883    -0.78700
O140        O  0.38933183  0.02902829  0.54601002    -0.89000
C141        C  0.50410097  0.98837514  0.39332099     0.85000
O142        O  0.45579012  0.07594319  0.55988788    -0.67200
O143        O  0.60411552  0.98106680  0.45221095    -0.86400
C144        C  0.46908953  0.08895199  0.52452564     0.85800
C145        C  0.38628358  0.01419446  0.51132458     1.07400
H146        H  0.53836235  0.03339286  0.47262450     0.39200
O147        O  0.52689840  0.00400575  0.47388096    -1.09100
O148        O  0.51545802  0.92862978  0.51408014    -0.65800
Ni149      Ni  0.51723341  0.98994121  0.52760494     1.26300
O150        O  0.47219184  0.06372288  0.49194425    -0.66000
O151        O  0.57436099  0.99241847  0.52049911    -0.78300
C152        C  0.48120112  0.99648925  0.61456714     0.85200
O153        O  0.50572035  0.97792799  0.58255698    -0.65500
Ni154      Ni  0.56214724  0.97107554  0.42806220     1.27400
Ni155      Ni  0.47148342  0.00193043  0.47784545     1.26100
H156        H  0.44879176  0.95873676  0.53396040     0.39700
O157        O  0.45724736  0.52045644  0.11577059    -0.80200
O158        O  0.48394320  0.50805220  0.92617157    -0.64900
O159        O  0.46485978  0.48651604  0.03537229    -1.11500
C160        C  0.60852545  0.48710045  0.99106558     1.06600
O161        O  0.52912192  0.45968481  0.89774034    -0.78100
O162        O  0.54285841  0.41394976  0.95068442    -0.65700
Ni163      Ni  0.42989368  0.52430839  0.07729142     1.34900
C164        C  0.52949993  0.40318157  0.98680171     0.85400
O165        O  0.41753298  0.49033522  0.98719342    -0.78700
O166        O  0.39511306  0.53117475  0.04608523    -0.89000
C167        C  0.50403409  0.48442465  0.89542945     0.85000
O168        O  0.46376767  0.57439785  0.05885635    -0.67200
O169        O  0.60564965  0.47243063  0.95627270    -0.86400
C170        C  0.47407710  0.58598425  0.02311454     0.85800
C171        C  0.38989652  0.51104619  0.01388752     1.07400
H172        H  0.54059468  0.53208507  0.97152594     0.39200
O173        O  0.52978738  0.50266965  0.97472948    -1.09100
O174        O  0.52286914  0.43043881  0.01843897    -0.65800
Ni175      Ni  0.52165142  0.49226469  0.02943355     1.26300
O176        O  0.47282027  0.55951432  0.99242339    -0.66000
O177        O  0.57834967  0.49884447  0.02186868    -0.78300
C178        C  0.48650363  0.50086267  0.11684815     0.85200
O179        O  0.51224490  0.48381097  0.08486016    -0.65500
Ni180      Ni  0.56483726  0.46750919  0.93024280     1.27400
Ni181      Ni  0.47367740  0.49748039  0.98069107     1.26100
H182        H  0.45375727  0.45722884  0.03897294     0.39700
O183        O  0.45687667  0.52612767  0.61564632    -0.80200
O184        O  0.48865868  0.50404834  0.42389550    -0.64900
O185        O  0.46775144  0.48879339  0.53545983    -1.11500
C186        C  0.60894414  0.48603243  0.49857102     1.06600
O187        O  0.54218718  0.46514235  0.39539960    -0.78100
O188        O  0.53695704  0.41661314  0.45594810    -0.65700
Ni189      Ni  0.43155342  0.52728923  0.57511559     1.34900
C190        C  0.52703789  0.40670208  0.49223387     0.85400
O191        O  0.42145810  0.48758535  0.48512530    -0.78700
O192        O  0.39843108  0.53148966  0.54184176    -0.89000
C193        C  0.51402467  0.48536687  0.39281766     0.85000
O194        O  0.46556158  0.57678065  0.55527445    -0.67200
O195        O  0.60406858  0.46388047  0.46712274    -0.86400
C196        C  0.47592838  0.58665994  0.51887852     0.85800
C197        C  0.39334682  0.50879997  0.51074946     1.07400
H198        H  0.54445210  0.53354169  0.47065699     0.39200
O199        O  0.53374178  0.50440706  0.47542464    -1.09100
O200        O  0.52684649  0.43470529  0.52242466    -0.65800
Ni201      Ni  0.52404757  0.49685683  0.53131416     1.26300
O202        O  0.47525409  0.55868743  0.48899752    -0.66000
O203        O  0.58045253  0.50595444  0.52535642    -0.78300
C204        C  0.48573936  0.50743540  0.61863616     0.85200
O205        O  0.51302773  0.49083709  0.58766466    -0.65500
Ni206      Ni  0.56947978  0.46620722  0.43499254     1.27400
Ni207      Ni  0.47763376  0.49667236  0.47968774     1.26100
H208        H  0.45709370  0.45957107  0.54018949     0.39700
C209        C  0.45363711  0.50717985  0.73399383    -0.27600
C210        C  0.48933794  0.49644745  0.73854832     0.06100
C211        C  0.52411887  0.49048693  0.70385968     0.25700
C212        C  0.52290349  0.49444978  0.66503194    -0.12000
C213        C  0.48705429  0.50474006  0.66014617    -0.26000
C214        C  0.45235982  0.51143140  0.69527409     0.36500
C215        C  0.49048846  0.49225928  0.77958341     0.06100
F216        F  0.55952179  0.48178486  0.70771185    -0.19800
H217        H  0.55016096  0.48969386  0.63877574     0.15900
F218        F  0.41685098  0.52117092  0.69236296    -0.23500
H219        H  0.42656343  0.51187062  0.76050312     0.17700
C220        C  0.48175887  0.52685009  0.81034669     0.25700
C221        C  0.48528560  0.52355247  0.84829272    -0.12000
C222        C  0.49779488  0.48584040  0.85609703    -0.26000
C223        C  0.50516774  0.45066911  0.82574483     0.36600
C224        C  0.50155587  0.45398789  0.78775756    -0.27700
F225        F  0.47159070  0.56445512  0.80307278    -0.19800
H226        H  0.47947201  0.55108894  0.87117877     0.15900
F227        F  0.51551684  0.41308180  0.83285890    -0.23500
H228        H  0.50766387  0.42677696  0.76452690     0.17700
C229        C  0.52324497  0.45906365  0.28079170    -0.27600
C230        C  0.50371149  0.49271047  0.27467387     0.06100
C231        C  0.48794541  0.52394303  0.30765164     0.25700
C232        C  0.49100759  0.52091754  0.34593140    -0.12000
C233        C  0.51068607  0.48738142  0.35202835    -0.26000
C234        C  0.52730108  0.45666504  0.31879602     0.36500
C235        C  0.49955245  0.49479004  0.23410328     0.06100
F236        F  0.47057142  0.55812010  0.30266267    -0.19800
H237        H  0.47863809  0.54546779  0.37070020     0.15900
F238        F  0.54685649  0.42385018  0.32304571    -0.23500
H239        H  0.53512475  0.43425317  0.25614172     0.17700
C240        C  0.53272688  0.48849862  0.19768217     0.25700
C241        C  0.52821205  0.49012451  0.15973707    -0.12000
C242        C  0.49068454  0.49836008  0.15723616    -0.26000
C243        C  0.45745253  0.50450843  0.19371969     0.36600
C244        C  0.46193510  0.50256667  0.23158051    -0.27700
F245        F  0.56983872  0.48181754  0.19874364    -0.19800
H246        H  0.55437302  0.48558431  0.13227019     0.15900
F247        F  0.42028380  0.51145053  0.19293122    -0.23500
H248        H  0.43567642  0.50655383  0.25903331     0.17700
C249        C  0.48236337  0.79520808  0.51997295    -0.27600
C250        C  0.51051490  0.76705958  0.49344293     0.06100
C251        C  0.54390572  0.78370819  0.46216222     0.25700
C252        C  0.54917341  0.82780328  0.45814485    -0.12000
C253        C  0.52152257  0.85611132  0.48540863    -0.26000
C254        C  0.48781942  0.83925521  0.51626877     0.36500
C255        C  0.50463694  0.72061701  0.49906126     0.06100
F256        F  0.57214426  0.75763522  0.43638588    -0.19800
H257        H  0.57549372  0.83998089  0.43427334     0.15900
F258        F  0.45970843  0.86518113  0.54249113    -0.23500
H259        H  0.45593546  0.78297047  0.54369559     0.17700
C260        C  0.49712886  0.70718035  0.53781971     0.25700
C261        C  0.48875563  0.66366906  0.54374689    -0.12000
C262        C  0.48756889  0.63245636  0.51122559    -0.26000
C263        C  0.49620902  0.64592335  0.47206850     0.36600
C264        C  0.50470279  0.68954135  0.46620172    -0.27700
F265        F  0.49795259  0.73622332  0.57005198    -0.19800
H266        H  0.48266212  0.65454066  0.57411797     0.15900
F267        F  0.49547663  0.61728034  0.43954216    -0.23500
H268        H  0.51013910  0.69918651  0.43613747     0.17700
C269        C  0.50063091  0.28680257  0.47501404    -0.27600
C270        C  0.50270909  0.27206110  0.51027069     0.06100
C271        C  0.51176000  0.30226527  0.54019630     0.25700
C272        C  0.51839942  0.34607209  0.53477870    -0.12000
C273        C  0.51693926  0.36066372  0.49915011    -0.26000
C274        C  0.50773683  0.33040749  0.46934347     0.36500
C275        C  0.49580486  0.22519821  0.51493499     0.06100
F276        F  0.51590417  0.28939414  0.57389354    -0.19800
H277        H  0.52591881  0.36844298  0.55800009     0.15900
F278        F  0.50537083  0.34281570  0.43465088    -0.23500
H279        H  0.49330058  0.26440886  0.45170047     0.17700
C280        C  0.46984484  0.20977126  0.55164870     0.25700
C281        C  0.46252348  0.16557933  0.55483520    -0.12000
C282        C  0.47999361  0.13565402  0.52129731    -0.26000
C283        C  0.50618799  0.15105935  0.48462116     0.36600
C284        C  0.51406631  0.19528951  0.48167643    -0.27700
F285        F  0.44980636  0.23721854  0.58384728    -0.19800
H286        H  0.44183551  0.15475712  0.58327125     0.15900
F287        F  0.52440840  0.12350559  0.45161319    -0.23500
H288        H  0.53443586  0.20623291  0.45315350     0.17700
C289        C  0.54651643  0.78287106  0.96847255    -0.27600
C290        C  0.51119326  0.76678132  0.99803421     0.06100
C291        C  0.48233593  0.79575360  0.02223347     0.25700
C292        C  0.48900769  0.83953363  0.01718485    -0.12000
C293        C  0.52412535  0.85545631  0.98752351    -0.26000
C294        C  0.55286397  0.82666104  0.96301441     0.36500
C295        C  0.50461662  0.72015952  0.00398688     0.06100
F296        F  0.44715580  0.78174443  0.05030030    -0.19800
H297        H  0.46629009  0.86101957  0.03617390     0.15900
F298        F  0.58781637  0.84104569  0.93485595    -0.23500
H299        H  0.56970350  0.76166865  0.95005892     0.17700
C300        C  0.51168865  0.68810494  0.97052631     0.25700
C301        C  0.50269737  0.64465034  0.97700548    -0.12000
C302        C  0.48651601  0.63202421  0.01686177    -0.26000
C303        C  0.48100249  0.66405596  0.05024323     0.36600
C304        C  0.49015989  0.70739835  0.04372746    -0.27700
F305        F  0.52573993  0.69865820  0.93151796    -0.19800
H306        H  0.50773648  0.62087058  0.95062735     0.15900
F307        F  0.46574594  0.65386229  0.08935785    -0.23500
H308        H  0.48561011  0.73117181  0.07005270     0.17700
C309        C  0.49904860  0.20510547  0.04029116    -0.27600
C310        C  0.49503995  0.22161697  0.00674820     0.06100
C311        C  0.48347323  0.19320264  0.97722929     0.25700
C312        C  0.47573599  0.14926862  0.98156085    -0.12000
C313        C  0.47900478  0.13282641  0.01553572    -0.26000
C314        C  0.49114858  0.16123251  0.04474916     0.36500
C315        C  0.50392743  0.26821036  0.00217445     0.06100
F316        F  0.47854408  0.20807110  0.94476159    -0.19800
H317        H  0.46623650  0.12822860  0.95875295     0.15900
F318        F  0.49618649  0.14657509  0.07725689    -0.23500
H319        H  0.50884602  0.22619480  0.06287216     0.17700
C320        C  0.48676921  0.29935984  0.03472115     0.25700
C321        C  0.49553924  0.34312942  0.02971303    -0.12000
C322        C  0.52129662  0.35671728  0.99214681    -0.26000
C323        C  0.53872825  0.32538530  0.95975157     0.36600
C324        C  0.53016293  0.28175548  0.96491299    -0.27700
F325        F  0.46064336  0.28752911  0.07100389    -0.19800
H326        H  0.48154379  0.36641093  0.05509078     0.15900
F327        F  0.56464886  0.33669936  0.92317604    -0.23500
H328        H  0.54442728  0.25839792  0.93973030     0.17700
C329        C  0.45215529  0.99156155  0.72896759    -0.27600
C330        C  0.48916184  0.98377295  0.73273637     0.06100
C331        C  0.52355299  0.97913436  0.69725610     0.25700
C332        C  0.52075417  0.98260240  0.65879682    -0.12000
C333        C  0.48383984  0.99143246  0.65514243    -0.26000
C334        C  0.44944982  0.99569668  0.69079071     0.36500
C335        C  0.49166538  0.98237108  0.77400507     0.06100
F336        F  0.56015776  0.97302277  0.69995542    -0.19800
H337        H  0.54773940  0.97949769  0.63197261     0.15900
F338        F  0.41294737  0.00342831  0.68886263    -0.23500
H339        H  0.42522031  0.99476698  0.75585808     0.17700
C340        C  0.47898663  0.01662469  0.80460432     0.25700
C341        C  0.48125590  0.01548751  0.84352211    -0.12000
C342        C  0.49607746  0.98012447  0.85288369    -0.26000
C343        C  0.50775112  0.94524195  0.82252115     0.36600
C344        C  0.50582651  0.94661732  0.78338125    -0.27700
F345        F  0.46536640  0.05178739  0.79649590    -0.19800
H346        H  0.47209523  0.04279848  0.86614900     0.15900
F347        F  0.52039327  0.90952543  0.83076416    -0.23500
H348        H  0.51490391  0.91950118  0.76048877     0.17700
C349        C  0.52809350  0.98063357  0.19618064    -0.27600
C350        C  0.49834385  0.99752589  0.23168985     0.06100
C351        C  0.46567322  0.01642562  0.22790536     0.25700
C352        C  0.46267000  0.01787486  0.18939543    -0.12000
C353        C  0.49205698  0.00046485  0.15372068    -0.26000
C354        C  0.52510609  0.98202308  0.15751798     0.36500
C355        C  0.50117167  0.99519214  0.27261883     0.06100
F356        F  0.43591668  0.03237337  0.26155528    -0.19800
H357        H  0.43678133  0.03214710  0.18766138     0.15900
F358        F  0.55478289  0.96575245  0.12401904    -0.23500
H359        H  0.55388209  0.96657873  0.19839167     0.17700
C360        C  0.50701652  0.95611665  0.28421334     0.25700
C361        C  0.50818958  0.95412659  0.32343929    -0.12000
C362        C  0.50308967  0.99087113  0.35189028    -0.26000
C363        C  0.49777967  0.03005957  0.34010199     0.36600
C364        C  0.49701578  0.03211366  0.30078592    -0.27700
F365        F  0.51026619  0.91958575  0.25811216    -0.19800
H366        H  0.51231577  0.92360444  0.33183544     0.15900
F367        F  0.49431584  0.06662734  0.36619657    -0.23500
H368        H  0.49329674  0.06271038  0.29223514     0.17700
C369        C  0.80492874  0.50248172  0.47165692    -0.27600
C370        C  0.77159966  0.50427618  0.50827462     0.06100
C371        C  0.77894338  0.51009506  0.54571924     0.25700
C372        C  0.81872902  0.51411946  0.54641960    -0.12000
C373        C  0.85220445  0.51209412  0.50989797    -0.26000
C374        C  0.84488023  0.50645077  0.47231787     0.36500
C375        C  0.72938268  0.49899365  0.50716341     0.06100
F376        F  0.74764593  0.51035402  0.58173343    -0.19800
H377        H  0.82323268  0.51791426  0.57583146     0.15900
F378        F  0.87615457  0.50536247  0.43625580    -0.23500
H379        H  0.79998171  0.49829416  0.44243545     0.17700
C380        C  0.70023131  0.52778070  0.53080027     0.25700
C381        C  0.66066654  0.52234214  0.52917353    -0.12000
C382        C  0.64956045  0.48867886  0.50337737    -0.26000
C383        C  0.67869745  0.45957457  0.48009239     0.36600
C384        C  0.71807808  0.46480920  0.48207493    -0.27700
F385        F  0.71042149  0.56228897  0.55411759    -0.19800
H386        H  0.63913040  0.54549436  0.54703621     0.15900
F387        F  0.66932025  0.42599266  0.45529169    -0.23500
H388        H  0.73986053  0.44198492  0.46395608     0.17700
C389        C  0.23137694  0.50942970  0.45283003    -0.27600
C390        C  0.23613076  0.49956961  0.48875145     0.06100
C391        C  0.20139872  0.48719842  0.52110866     0.25700
C392        C  0.16276618  0.48487116  0.51751500    -0.12000
C393        C  0.15797035  0.49446831  0.48152626    -0.26000
C394        C  0.19270977  0.50692898  0.44914044     0.36500
C395        C  0.27705491  0.50322474  0.49296291     0.06100
F396        F  0.20489053  0.47647338  0.55594092    -0.19800
H397        H  0.13658622  0.47483740  0.54271737     0.15900
F398        F  0.18923963  0.51791521  0.41438724    -0.23500
H399        H  0.25760109  0.51980973  0.42785700     0.17700
C400        C  0.30988524  0.48322613  0.46304477     0.25700
C401        C  0.34774510  0.48560803  0.46866154    -0.12000
C402        C  0.35360694  0.50795150  0.50415825    -0.26000
C403        C  0.32071616  0.52856976  0.53366492     0.36600
C404        C  0.28311654  0.52631729  0.52786840    -0.27700
F405        F  0.30500937  0.46012885  0.42910357    -0.19800
H406        H  0.37233019  0.46942603  0.44539399     0.15900
F407        F  0.32435656  0.55036417  0.56864431    -0.23500
H408        H  0.25844095  0.54253621  0.55098563     0.17700
C409        C  0.80286036  0.51039214  0.97052850    -0.27600
C410        C  0.76858450  0.50679938  0.00585618     0.06100
C411        C  0.77406821  0.50593999  0.04361202     0.25700
C412        C  0.81323459  0.50817388  0.04575299    -0.12000
C413        C  0.84767457  0.51111449  0.01033876    -0.26000
C414        C  0.84211713  0.51265564  0.97263672     0.36500
C415        C  0.72736277  0.50188679  0.00266190     0.06100
F416        F  0.74161142  0.50136232  0.07817532    -0.19800
H417        H  0.81657667  0.50679604  0.07517760     0.15900
F418        F  0.87447248  0.51716439  0.93799976    -0.23500
H419        H  0.79914098  0.51149684  0.94122543     0.17700
C420        C  0.69698555  0.52869370  0.02748157     0.25700
C421        C  0.65815182  0.52312785  0.02409745    -0.12000
C422        C  0.64913360  0.49119449  0.99559270    -0.26000
C423        C  0.67956251  0.46426761  0.97091749     0.36600
C424        C  0.71826388  0.46969312  0.97451243    -0.27700
F425        F  0.70516942  0.56104079  0.05408663    -0.19800
H426        H  0.63536996  0.54451552  0.04312904     0.15900
F427        F  0.67177287  0.43215185  0.94389116    -0.23500
H428        H  0.74116347  0.44840698  0.95551448     0.17700
C429        C  0.30215280  0.48460939  0.97214837    -0.27600
C430        C  0.27393151  0.51342852  0.99732082     0.06100
C431        C  0.28485148  0.54266808  0.02666976     0.25700
C432        C  0.32262175  0.54192513  0.03163479    -0.12000
C433        C  0.35059082  0.51247583  0.00708906    -0.26000
C434        C  0.34019588  0.48425893  0.97661658     0.36500
C435        C  0.23276802  0.51175687  0.99380437     0.06100
F436        F  0.25917335  0.57234976  0.05026643    -0.19800
H437        H  0.32996874  0.56457134  0.05477157     0.15900
F438        F  0.36621365  0.45549071  0.95173313    -0.23500
H439        H  0.29437639  0.46154638  0.94952955     0.17700
C440        C  0.22771438  0.51020943  0.95548534     0.25700
C441        C  0.18872092  0.50702401  0.95258392    -0.12000
C442        C  0.15384469  0.50549817  0.98774614    -0.30800
C443        C  0.15898664  0.50752212  0.02618406     0.36600
C444        C  0.19803416  0.51043488  0.02899607    -0.27700
F445        F  0.26046673  0.51243365  0.92083589    -0.19800
H446        H  0.18590218  0.50590378  0.92260409     0.15900
F447        F  0.12644443  0.50556141  0.06103512    -0.23500
H448        H  0.20111851  0.51080131  0.05878206     0.17700
C449        C  0.02087578  0.46522198  0.77605229    -0.27600
C450        C  0.00468539  0.50000387  0.76744209     0.06100
C451        C  0.98807653  0.53190256  0.79957545     0.25700
C452        C  0.98770522  0.52883178  0.83917882    -0.12000
C453        C  0.00464148  0.49451096  0.84761419    -0.26000
C454        C  0.02123380  0.46255535  0.81546901     0.36500
C455        C  0.00397285  0.50222814  0.72545111     0.06100
F456        F  0.97331517  0.56689681  0.79255726    -0.19800
H457        H  0.97515512  0.55412002  0.86305777     0.15900
F458        F  0.03764183  0.42843964  0.82196307    -0.23500
H459        H  0.03291653  0.43965142  0.75230707     0.17700
C460        C  0.03772956  0.49241006  0.69023689     0.25700
C461        C  0.03589890  0.49443294  0.65117070    -0.12000
C462        C  0.00092063  0.50730291  0.64652598    -0.26000
C463        C  0.96739446  0.51732332  0.68165116     0.36600
C464        C  0.96876764  0.51403977  0.72043931    -0.27700
F465        F  0.07286315  0.48197806  0.69345230    -0.19800
H466        H  0.06216194  0.48683128  0.62456543     0.15900
F467        F  0.93271001  0.52928146  0.67859100    -0.23500
H468        H  0.94188355  0.52042271  0.74669167     0.17700
C469        C  0.96346927  0.51024073  0.22387675    -0.27600
C470        C  0.99857055  0.49636712  0.22741680     0.06100
C471        C  0.03153783  0.48658422  0.19159087     0.25700
C472        C  0.02928788  0.49106677  0.15324011    -0.12000
C473        C  0.99461809  0.50629526  0.14991867    -0.26000
C474        C  0.96162036  0.51581746  0.18576072     0.36500
C475        C  0.00065595  0.49319761  0.26856612     0.06100
F476        F  0.06645248  0.47408310  0.19361333    -0.19800
H477        H  0.05506297  0.48344141  0.12615889     0.15900
F478        F  0.92712732  0.52979119  0.18410570    -0.23500
H479        H  0.93722160  0.51681229  0.25078987     0.17700
C480        C  0.98715508  0.52609076  0.30053955     0.25700
C481        C  0.98911888  0.52298619  0.33914170    -0.12000
C482        C  0.00525095  0.48752085  0.34668621    -0.26000
C483        C  0.01884467  0.45459576  0.31473820     0.36600
C484        C  0.01612199  0.45731788  0.27624558    -0.27700
F485        F  0.97329820  0.56205447  0.29423163    -0.19800
H486        H  0.97887434  0.54908115  0.36293181     0.15900
F487        F  0.03460559  0.41967399  0.32057075    -0.23500
H488        H  0.02597147  0.43116486  0.25244272     0.17700
C489        C  0.99898209  0.80517918  0.52360015    -0.27600
C490        C  0.01685218  0.77536194  0.49010048     0.06100
C491        C  0.03976566  0.79082550  0.45237227     0.25700
C492        C  0.04465211  0.83489611  0.44855746    -0.12000
C493        C  0.02701249  0.86477553  0.48213100    -0.26000
C494        C  0.00398016  0.84930447  0.51984443     0.36500
C495        C  0.01000406  0.72838869  0.49449959     0.06100
F496        F  0.05806510  0.76350669  0.41920475    -0.19800
H497        H  0.06265759  0.84563039  0.41913702     0.15900
F498        F  0.98528449  0.87653829  0.55291178    -0.23500
H499        H  0.98019924  0.79424388  0.55268948     0.17700
C500        C  0.01216189  0.71216533  0.52919255     0.25700
C501        C  0.00242843  0.66854513  0.53449058    -0.12000
C502        C  0.99102087  0.63988881  0.50510125    -0.26000
C503        C  0.99028218  0.65576963  0.46970107     0.36600
C504        C  0.99932616  0.69953243  0.46475262    -0.27700
F505        F  0.02396228  0.73836240  0.55793586    -0.19800
H506        H  0.00394927  0.65712919  0.56169297     0.15900
F507        F  0.97911473  0.62945658  0.44062077    -0.23500
H508        H  0.99665863  0.71104564  0.43811172     0.17700
C509        C  0.00456441  0.19619684  0.46555834    -0.27600
C510        C  0.01117180  0.22486146  0.49746823     0.06100
C511        C  0.00714043  0.20916084  0.53445188     0.25700
C512        C  0.99538831  0.16586114  0.53975198    -0.12000
C513        C  0.98762993  0.13723872  0.50823665    -0.26000
C514        C  0.99301610  0.15284474  0.47068690     0.36500
C515        C  0.01950499  0.27141211  0.49288985     0.06100
F516        F  0.01467118  0.23571174  0.56545533    -0.19800
H517        H  0.99213450  0.15484018  0.56875181     0.15900
F518        F  0.98612764  0.12668180  0.43915389    -0.23500
H519        H  0.00711380  0.20767911  0.43694498     0.17700
C520        C  0.04973195  0.28652813  0.45828692     0.25700
C521        C  0.05520125  0.33035381  0.45331757    -0.12000
C522        C  0.03109168  0.36000883  0.48299452    -0.26000
C523        C  0.00144939  0.34482219  0.51803709     0.36600
C524        C  0.99562464  0.30097827  0.52264374    -0.27700
F525        F  0.07441917  0.25904477  0.42967391    -0.19800
H526        H  0.07874091  0.34116647  0.42641132     0.15900
F527        F  0.97728958  0.37207578  0.54742824    -0.23500
H528        H  0.97176234  0.28996687  0.54923878     0.17700
C529        C  0.79891973  0.98727619  0.46958231    -0.27600
C530        C  0.76821987  0.01042126  0.49906783     0.06100
C531        C  0.77763303  0.03715849  0.53074335     0.25700
C532        C  0.81676088  0.03966778  0.53331533    -0.12000
C533        C  0.84734345  0.01575797  0.50426084    -0.26000
C534        C  0.83807933  0.99004063  0.47183536     0.36500
C535        C  0.72647118  0.00588241  0.49678511     0.06100
F536        F  0.74911985  0.06119415  0.55897929    -0.19800
H537        H  0.82295819  0.06011851  0.55834474     0.15900
F538        F  0.86647324  0.96670081  0.44262354    -0.23500
H539        H  0.79236337  0.96616973  0.44508835     0.17700
C540        C  0.72022910  0.00827157  0.45961679     0.25700
C541        C  0.68102958  0.00254472  0.45738402    -0.12000
C542        C  0.64696869  0.99490396  0.49218414    -0.26000
C543        C  0.65314503  0.99308851  0.52957277     0.36600
C544        C  0.69258548  0.99816098  0.53163359    -0.27700
F545        F  0.75193200  0.01714245  0.42556319    -0.19800
H546        H  0.67739547  0.00471537  0.42823486     0.15900
F547        F  0.62133751  0.98570055  0.56395895    -0.23500
H548        H  0.69669819  0.99550122  0.56046129     0.17700
C549        C  0.22466439  0.01511536  0.45231283    -0.27600
C550        C  0.22907677  0.01161367  0.49012487     0.06100
C551        C  0.19386759  0.00591915  0.52435511     0.25700
C552        C  0.15528500  0.00304671  0.52051669    -0.12000
C553        C  0.15086260  0.00538343  0.48248523    -0.26000
C554        C  0.18603152  0.01205222  0.44841316     0.36500
C555        C  0.27023191  0.01388830  0.49387709     0.06100
F556        F  0.19671150  0.00164955  0.56131916    -0.19800
H557        H  0.12881075  0.99786276  0.54724046     0.15900
F558        F  0.18314653  0.01642658  0.41148786    -0.23500
H559        H  0.25121730  0.02059207  0.42575925     0.17700
C560        C  0.30099529  0.98921670  0.46606993     0.25700
C561        C  0.33886835  0.99018021  0.47139685    -0.12000
C562        C  0.34684307  0.01552562  0.50460903    -0.26000
C563        C  0.31632004  0.04103605  0.53171505     0.36600
C564        C  0.27865419  0.04026189  0.52618861    -0.27700
F565        F  0.29400508  0.96291427  0.43464656    -0.19800
H566        H  0.36163251  0.97016544  0.45000480     0.15900
F567        F  0.32272157  0.06695679  0.56359978    -0.23500
H568        H  0.25586361  0.06036758  0.54739704     0.17700
C569        C  0.99518130  0.71543117  0.03678660    -0.27600
C570        C  0.99176818  0.73042856  0.00219324     0.06100
C571        C  0.97954377  0.70097873  0.97381102     0.25700
C572        C  0.97198048  0.65735543  0.97946053    -0.12000
C573        C  0.97561025  0.64226711  0.01390897    -0.26000
C574        C  0.98672286  0.67192576  0.04294703     0.36500
C575        C  0.00088584  0.77667445  0.99588399     0.06100
F576        F  0.97388970  0.71453814  0.94112854    -0.19800
H577        H  0.96263551  0.63538357  0.95709885     0.15900
F578        F  0.99040846  0.65883637  0.07678357    -0.23500
H579        H  0.00484467  0.73741301  0.05892474     0.17700
C580        C  0.98400560  0.80857848  0.02762229     0.25700
C581        C  0.99276526  0.85196480  0.02138970    -0.12000
C582        C  0.01842196  0.86468885  0.98336905    -0.26000
C583        C  0.03515839  0.83264473  0.95146342     0.36600
C584        C  0.02655554  0.78919151  0.95786438    -0.27700
F585        F  0.95821486  0.79784248  0.06445572    -0.19800
H586        H  0.97912235  0.87566871  0.04649929     0.15900
F587        F  0.06033677  0.84306960  0.91426810    -0.23500
H588        H  0.04035829  0.76520677  0.93311275     0.17700
C589        C  0.01138615  0.29428141  0.96236210    -0.27600
C590        C  0.01677729  0.27960557  0.99616424     0.06100
C591        C  0.02998904  0.30946214  0.02370245     0.25700
C592        C  0.03599359  0.35316545  0.01818982    -0.12000
C593        C  0.03017498  0.36769810  0.98455839    -0.26000
C594        C  0.01836264  0.33773800  0.95631565     0.36500
C595        C  0.00791816  0.23327849  0.00220210     0.06100
F596        F  0.03804451  0.29641154  0.05532034    -0.19800
H597        H  0.04588640  0.37564945  0.03987438     0.15900
F598        F  0.01214882  0.35058344  0.92361593    -0.23500
H599        H  0.00099456  0.27207695  0.94085743     0.17700
C600        C  0.98364914  0.21971170  0.04033997     0.25700
C601        C  0.97336203  0.17598495  0.04455885    -0.12000
C602        C  0.98606966  0.14488658  0.01072674    -0.26000
C603        C  0.01026487  0.15857205  0.97255717     0.36600
C604        C  0.02136519  0.20218147  0.96862489    -0.27700
F605        F  0.96798370  0.24867316  0.07304896    -0.19800
H606        H  0.95428306  0.16659877  0.07420078     0.15900
F607        F  0.02312351  0.13001996  0.93883512    -0.23500
H608        H  0.04012717  0.21176707  0.93895387     0.17700
C609        C  0.72199827  0.01155993  0.95762838    -0.27600
C610        C  0.72820183  0.00842181  0.99453448     0.06100
C611        C  0.69435306  0.99981943  0.02923571     0.25700
C612        C  0.65506240  0.99407748  0.02665637    -0.12000
C613        C  0.64890800  0.99659058  0.98941350    -0.26000
C614        C  0.68299590  0.00559126  0.95488955     0.36500
C615        C  0.77011764  0.01367949  0.99625728     0.06100
F616        F  0.69940189  0.99572317  0.06526726    -0.19800
H617        H  0.62955383  0.98696646  0.05362913     0.15900
F618        F  0.67882069  0.00931348  0.91838707    -0.23500
H619        H  0.74753651  0.01889629  0.93074658     0.17700
C620        C  0.80114184  0.99014877  0.96742688     0.25700
C621        C  0.84027003  0.99426570  0.97006336    -0.12000
C622        C  0.84926000  0.02190360  0.00142837    -0.26000
C623        C  0.81853088  0.04676147  0.02927100     0.36600
C624        C  0.77939243  0.04247872  0.02667488    -0.27700
F625        F  0.79325036  0.96191332  0.93761292    -0.19800
H626        H  0.86320266  0.97473611  0.94825511     0.15900
F627        F  0.82618422  0.07529819  0.05902867    -0.23500
H628        H  0.75623013  0.06175923  0.04847484     0.17700
C629        C  0.18946962  0.99396684  0.03448077    -0.27600
C630        C  0.22491911  0.00166380  0.00118112     0.06100
C631        C  0.22127077  0.00705023  0.96341569     0.25700
C632        C  0.18308123  0.00388060  0.95890612    -0.12000
C633        C  0.14757869  0.99616426  0.99207458    -0.26000
C634        C  0.15107806  0.99154754  0.03015291     0.36500
C635        C  0.26568156  0.00322974  0.00540864     0.06100
F636        F  0.25462822  0.01635921  0.93098790    -0.19800
H637        H  0.18131263  0.00820173  0.92941401     0.15900
F638        F  0.11761016  0.98361946  0.06289422    -0.23500
H639        H  0.19151450  0.98912188  0.06372488     0.17700
C640        C  0.27451988  0.02778616  0.03844820     0.25700
C641        C  0.31346229  0.02950263  0.04124054    -0.12000
C642        C  0.34441626  0.00688114  0.01120518    -0.26000
C643        C  0.33541403  0.98234702  0.97811527     0.36600
C644        C  0.29640439  0.98035349  0.97560891    -0.27700
F645        F  0.24586483  0.05091535  0.06756016    -0.19800
H646        H  0.31937587  0.04881168  0.06697762     0.15900
F647        F  0.36393217  0.95964488  0.94838606    -0.23500
H648        H  0.29010524  0.96053986  0.95030277     0.17700
C649        C  0.02244978  0.96915592  0.77319893    -0.27600
C650        C  0.00552171  0.00370925  0.76533154     0.06100
C651        C  0.99000206  0.03604111  0.79720599     0.25700
C652        C  0.99125245  0.03351313  0.83631389    -0.12000
C653        C  0.00788740  0.99868781  0.84444532    -0.26000
C654        C  0.02363506  0.96648023  0.81226610     0.36500
C655        C  0.00193061  0.00447903  0.72454938     0.06100
F656        F  0.97395114  0.07026818  0.79041119    -0.19800
H657        H  0.97932281  0.05900063  0.86021773     0.15900
F658        F  0.03942734  0.93181317  0.81853101    -0.23500
H659        H  0.03389646  0.94357157  0.74921475     0.17700
C660        C  0.03575821  0.99973985  0.68853522     0.25700
C661        C  0.03131923  0.00001265  0.65031425    -0.12000
C662        C  0.99316659  0.00524834  0.64749100    -0.26000
C663        C  0.95928652  0.00914160  0.68366731     0.36600
C664        C  0.96377880  0.00875686  0.72163409    -0.27700
F665        F  0.07321253  0.99603230  0.69039565    -0.19800
H666        H  0.05787954  0.99706470  0.62301681     0.15900
F667        F  0.92152582  0.01264928  0.68248855    -0.23500
H668        H  0.93718800  0.01135103  0.74893898     0.17700
C669        C  0.98581199  0.03149866  0.29802165    -0.27600
C670        C  0.98692899  0.99398457  0.27099611     0.06100
C671        C  0.99061235  0.95451545  0.28347165     0.25700
C672        C  0.99480402  0.95311688  0.32162380    -0.12000
C673        C  0.99425719  0.99081668  0.34828954    -0.26000
C674        C  0.98891630  0.02994424  0.33647929     0.36500
C675        C  0.98569059  0.99674471  0.22948700     0.06100
F676        F  0.98966107  0.91732432  0.25899613    -0.19800
H677        H  0.99815803  0.92255085  0.33049758     0.15900
F678        F  0.98855702  0.06705838  0.36137847    -0.23500
H679        H  0.98350212  0.06232307  0.28895512     0.17700
C680        C  0.95644978  0.01992938  0.22399617     0.25700
C681        C  0.95673030  0.02398813  0.18469805    -0.12000
C682        C  0.98603960  0.00498877  0.14991182    -0.26000
C683        C  0.01519325  0.98152039  0.15547654     0.36600
C684        C  0.01497398  0.97763146  0.19488726    -0.27700
F685        F  0.92712948  0.03812782  0.25665978    -0.19800
H686        H  0.93357208  0.04182648  0.18161145     0.15900
F687        F  0.04423364  0.96272398  0.12302504    -0.23500
H688        H  0.03823035  0.96024194  0.19836360     0.17700
loop_ 
_geom_bond_atom_site_label_1 
_geom_bond_atom_site_label_2 
_geom_bond_distance 
_geom_bond_site_symmetry_2 
_ccdc_geom_bond_type 
O1           Ni7   1.928       .  S
O1           C22   1.271       .  A
O2          Ni25   1.908       .  S
O2           C11   1.268   1_645  A
O3           Ni7   1.919   1_565  S
O3          Ni25   1.913   1_564  S
O3          Ni19   1.912   1_655  S
O3           H26   0.966       .  S
C4           O21   1.273   1_566  A
C4           O13   1.275       .  A
C4          C633   1.478       .  S
O5          Ni24   1.929       .  S
O5           C11   1.271       .  A
O6          Ni24   1.911       .  S
O6            C8   1.269       .  A
Ni7          O10   1.924       .  S
Ni7          O12   1.903       .  S
C8           O18   1.270   1_556  A
C8          C582   1.486       .  S
O9          Ni25   1.908       .  S
O9           C15   1.272   1_556  A
O10          C15   1.273       .  A
C11         C653   1.485       .  S
O12          C14   1.269       .  A
O13         Ni24   1.921       .  S
C14          O20   1.273   1_554  A
C14         C602   1.485       .  S
C15         C622   1.482       .  S
H16          O17   0.966       .  S
O17         Ni25   1.906   1_455  S
O17         Ni19   1.908   1_546  S
O17         Ni24   1.918   1_545  S
O18         Ni19   1.919       .  S
Ni19         O23   1.904       .  S
Ni19         O21   1.909   1_565  S
O20         Ni25   1.932       .  S
C22          O23   1.266   1_645  A
C22         C682   1.485       .  S
O27         Ni33   1.919       .  S
O27          C48   1.271       .  A
O28         Ni51   1.894       .  S
O28          C37   1.263   1_645  A
O29         Ni33   1.922   1_565  S
O29         Ni51   1.905   1_565  S
O29         Ni45   1.925   1_665  S
O29          H52   0.966       .  S
C30          O47   1.273   1_565  A
C30          O39   1.277       .  A
C30         C553   1.483   1_565  S
O31         Ni50   1.942       .  S
O31          C37   1.272       .  A
O32         Ni50   1.905       .  S
O32          C34   1.269       .  A
Ni33         O36   1.941       .  S
Ni33         O38   1.905       .  S
C34          O44   1.274       .  A
C34         C493   1.489       .  S
O35         Ni51   1.894   1_565  S
O35          C41   1.265   1_565  A
O36          C41   1.273       .  A
C37         C673   1.475   1_455  S
O38          C40   1.270       .  A
O39         Ni50   1.931       .  S
C40          O46   1.275       .  A
C40         C513   1.485       .  S
C41         C533   1.485       .  S
H42          O43   0.966       .  S
O43         Ni51   1.897   1_455  S
O43         Ni45   1.905       .  S
O43         Ni50   1.917   1_545  S
O44         Ni45   1.933   1_565  S
Ni45         O49   1.905   1_545  S
Ni45         O47   1.909       .  S
O46         Ni51   1.940       .  S
C48          O49   1.269   1_645  A
C48         C662   1.480       .  S
O53         Ni59   1.925       .  S
O53          C74   1.270       .  A
O54         Ni77   1.914       .  S
O54          C63   1.270   1_655  A
O55         Ni59   1.920       .  S
O55         Ni77   1.917   1_554  S
O55         Ni71   1.916   1_655  S
O55          H78   0.966       .  S
C56          O73   1.274   1_556  A
C56          O65   1.276       .  A
C56         C442   1.486       .  S
O57         Ni76   1.928       .  S
O57          C63   1.270       .  A
O58         Ni76   1.906       .  S
O58          C60   1.267       .  A
Ni59         O62   1.919       .  S
Ni59         O64   1.907       .  S
C60          O70   1.269   1_556  A
C60         C593   1.476       .  S
O61         Ni77   1.912       .  S
O61          C67   1.273   1_556  A
O62          C67   1.273       .  A
C63         C453   1.486       .  S
O64          C66   1.269       .  A
O65         Ni76   1.927       .  S
C66          O72   1.274   1_554  A
C66         C573   1.482       .  S
C67         C413   1.479       .  S
H68          O69   0.967       .  S
O69         Ni77   1.911   1_455  S
O69         Ni71   1.909   1_556  S
O69         Ni76   1.918       .  S
O70         Ni71   1.921       .  S
Ni71         O75   1.901       .  S
Ni71         O73   1.912       .  S
O72         Ni77   1.931       .  S
C74          O75   1.265   1_655  A
C74         C473   1.479       .  S
O79         Ni85   1.924       .  S
O79         C100   1.270       .  A
O80        Ni103   1.896       .  S
O80          C89   1.265   1_655  A
O81         Ni85   1.915       .  S
O81        Ni103   1.909       .  S
O81         Ni97   1.915   1_655  S
O81         H104   0.966       .  S
C82          O99   1.276       .  A
C82          O91   1.276       .  A
C82         C393   1.479       .  S
O83        Ni102   1.933       .  S
O83          C89   1.271       .  A
O84        Ni102   1.910       .  S
O84          C86   1.269       .  A
Ni85         O88   1.927       .  S
Ni85         O90   1.908       .  S
C86          O96   1.272       .  A
C86         C522   1.483       .  S
O87        Ni103   1.912       .  S
O87          C93   1.273       .  A
O88          C93   1.275       .  A
C89         C482   1.479       .  S
O90          C92   1.268       .  A
O91        Ni102   1.922       .  S
C92          O98   1.272       .  A
C92         C502   1.485       .  S
C93         C373   1.485       .  S
H94          O95   0.966       .  S
O95        Ni103   1.908   1_455  S
O95         Ni97   1.904       .  S
O95        Ni102   1.915       .  S
O96         Ni97   1.924       .  S
Ni97        O101   1.907       .  S
Ni97         O99   1.916       .  S
O98        Ni103   1.932       .  S
C100        O101   1.268   1_655  A
C100        C462   1.478   1_655  S
O105       Ni111   1.929       .  S
O105        C126   1.273       .  A
O106       Ni129   1.905   1_545  S
O106        C115   1.267   1_545  A
O107       Ni111   1.916   1_565  S
O107       Ni129   1.912   1_554  S
O107       Ni123   1.918       .  S
O107        H130   0.966       .  S
C108        O125   1.278   1_556  A
C108        O117   1.275       .  A
C108        C613   1.485       .  S
O109       Ni128   1.934       .  S
O109        C115   1.272       .  A
O110       Ni128   1.911       .  S
O110        C112   1.269       .  A
Ni111       O114   1.933       .  S
Ni111       O116   1.902       .  S
C112        O122   1.272   1_556  A
C112        C293   1.480       .  S
O113       Ni129   1.900       .  S
O113        C119   1.269   1_566  A
O114        C119   1.275       .  A
C115        C342   1.484       .  S
O116        C118   1.268       .  A
O117       Ni128   1.916       .  S
C118        O124   1.275   1_554  A
C118        C313   1.482       .  S
C119        C642   1.484       .  S
H120        O121   0.966       .  S
O121       Ni129   1.901   1_545  S
O121       Ni123   1.905   1_546  S
O121       Ni128   1.914   1_545  S
O122       Ni123   1.925       .  S
Ni123       O127   1.905       .  S
Ni123       O125   1.926       .  S
O124       Ni129   1.939   1_545  S
C126        O127   1.268   1_545  A
C126        C353   1.485       .  S
O131       Ni137   1.934       .  S
O131        C152   1.275   1_545  A
O132       Ni155   1.902       .  S
O132        C141   1.265   1_545  A
O133       Ni137   1.918   1_565  S
O133       Ni155   1.913   1_565  S
O133       Ni149   1.927       .  S
O133        H156   0.966       .  S
C134        O151   1.279       .  A
C134        O143   1.276       .  A
C134        C542   1.484       .  S
O135       Ni154   1.930       .  S
O135        C141   1.270       .  A
O136       Ni154   1.910       .  S
O136        C138   1.268       .  A
Ni137       O140   1.938       .  S
Ni137       O142   1.908       .  S
C138        O148   1.271       .  A
C138        C253   1.482       .  S
O139       Ni155   1.902   1_565  S
O139        C145   1.268   1_565  A
O140        C145   1.275       .  A
C141        C362   1.476       .  S
O142        C144   1.271       .  A
O143       Ni154   1.912       .  S
C144        O150   1.277       .  A
C144        C282   1.487       .  S
C145        C562   1.488       .  S
H146        O147   0.966       .  S
O147       Ni155   1.895       .  S
O147       Ni149   1.899   1_545  S
O147       Ni154   1.912   1_545  S
O148       Ni149   1.924       .  S
Ni149       O153   1.907       .  S
Ni149       O151   1.927       .  S
O150       Ni155   1.942       .  S
C152        O153   1.270       .  A
C152        C333   1.486       .  S
O157       Ni163   1.927       .  S
O157        C178   1.272       .  A
O158       Ni181   1.886       .  S
O158        C167   1.261       .  A
O159       Ni163   1.923       .  S
O159       Ni181   1.905   1_554  S
O159       Ni175   1.921       .  S
O159        H182   0.967       .  S
C160        O177   1.272   1_556  A
C160        O169   1.275       .  A
C160        C422   1.476       .  S
O161       Ni180   1.938       .  S
O161        C167   1.272       .  A
O162       Ni180   1.899       .  S
O162        C164   1.268       .  A
Ni163       O166   1.943       .  S
Ni163       O168   1.907       .  S
C164        O174   1.275   1_556  A
C164        C322   1.484       .  S
O165       Ni181   1.894       .  S
O165        C171   1.264   1_556  A
O166        C171   1.274       .  A
C167        C222   1.474       .  S
O168        C170   1.270       .  A
O169       Ni180   1.927       .  S
C170        O176   1.276   1_554  A
C170        C302   1.490       .  S
C171        C433   1.485       .  S
H172        O173   0.966       .  S
O173       Ni181   1.897       .  S
O173       Ni175   1.906   1_556  S
O173       Ni180   1.921       .  S
O174       Ni175   1.936       .  S
Ni175       O179   1.904       .  S
Ni175       O177   1.905       .  S
O176       Ni181   1.944       .  S
C178        O179   1.269       .  A
C178        C242   1.484       .  S
O183       Ni189   1.922       .  S
O183        C204   1.271       .  A
O184       Ni207   1.898       .  S
O184        C193   1.266       .  A
O185       Ni189   1.923       .  S
O185       Ni207   1.908       .  S
O185       Ni201   1.919       .  S
O185        H208   0.967       .  S
C186        O203   1.270       .  A
C186        O195   1.272       .  A
C186        C382   1.483       .  S
O187       Ni206   1.932       .  S
O187        C193   1.272       .  A
O188       Ni206   1.899       .  S
O188        C190   1.270       .  A
Ni189       O192   1.933       .  S
Ni189       O194   1.906       .  S
C190        O200   1.279       .  A
C190        C273   1.486       .  S
O191       Ni207   1.905       .  S
O191        C197   1.267       .  A
O192        C197   1.271       .  A
C193        C233   1.483       .  S
O194        C196   1.272       .  A
O195       Ni206   1.931       .  S
C196        O202   1.277       .  A
C196        C262   1.489       .  S
C197        C402   1.487       .  S
H198        O199   0.965       .  S
O199       Ni207   1.912       .  S
O199       Ni201   1.911       .  S
O199       Ni206   1.921       .  S
O200       Ni201   1.950       .  S
Ni201       O205   1.907       .  S
Ni201       O203   1.909       .  S
O202       Ni207   1.944       .  S
C204        O205   1.270       .  A
C204        C213   1.484       .  S
C209        C210   1.401       .  A
C209        C214   1.397       .  A
C209        H219   1.084       .  S
C210        C215   1.475       .  S
C210        C211   1.404       .  A
C211        C212   1.398       .  A
C211        F216   1.357       .  S
C212        C213   1.406       .  A
C212        H217   1.083       .  S
C213        C214   1.413       .  A
C214        F218   1.358       .  S
C215        C220   1.403       .  A
C215        C224   1.404       .  A
C220        C221   1.395       .  A
C220        F225   1.358       .  S
C221        C222   1.406       .  A
C221        H226   1.083       .  S
C222        C223   1.406       .  A
C223        C224   1.398       .  A
C223        F227   1.358       .  S
C224        H228   1.083       .  S
C229        C230   1.405       .  A
C229        C234   1.399       .  A
C229        H239   1.083       .  S
C230        C235   1.488       .  S
C230        C231   1.408       .  A
C231        C232   1.398       .  A
C231        F236   1.357       .  S
C232        C233   1.405       .  A
C232        H237   1.083       .  S
C233        C234   1.409       .  A
C234        F238   1.357       .  S
C235        C240   1.408       .  A
C235        C244   1.405       .  A
C240        C241   1.399       .  A
C240        F245   1.357       .  S
C241        C242   1.405       .  A
C241        H246   1.083       .  S
C242        C243   1.410       .  A
C243        C244   1.398       .  A
C243        F247   1.358       .  S
C244        H248   1.083       .  S
C249        C250   1.405       .  A
C249        C254   1.397       .  A
C249        H259   1.083       .  S
C250        C255   1.485       .  S
C250        C251   1.407       .  A
C251        C252   1.401       .  A
C251        F256   1.358       .  S
C252        C253   1.407       .  A
C252        H257   1.083       .  S
C253        C254   1.407       .  A
C254        F258   1.357       .  S
C255        C260   1.406       .  A
C255        C264   1.404       .  A
C260        C261   1.398       .  A
C260        F265   1.358       .  S
C261        C262   1.407       .  A
C261        H266   1.083       .  S
C262        C263   1.413       .  A
C263        C264   1.401       .  A
C263        F267   1.358       .  S
C264        H268   1.083       .  S
C269        C270   1.405       .  A
C269        C274   1.397       .  A
C269        H279   1.083       .  S
C270        C275   1.491       .  S
C270        C271   1.410       .  A
C271        C272   1.401       .  A
C271        F276   1.357       .  S
C272        C273   1.406       .  A
C272        H277   1.083       .  S
C273        C274   1.410       .  A
C274        F278   1.358       .  S
C275        C280   1.408       .  A
C275        C284   1.407       .  A
C280        C281   1.400       .  A
C280        F285   1.357       .  S
C281        C282   1.407       .  A
C281        H286   1.083       .  S
C282        C283   1.409       .  A
C283        C284   1.400       .  A
C283        F287   1.358       .  S
C284        H288   1.083       .  S
C289        C290   1.407       .  A
C289        C294   1.401       .  A
C289        H299   1.083       .  S
C290        C295   1.493   1_556  S
C290        C291   1.411   1_556  A
C291        C292   1.398       .  A
C291        F296   1.357       .  S
C292        C293   1.403   1_554  A
C292        H297   1.083       .  S
C293        C294   1.408       .  A
C294        F298   1.358       .  S
C295        C300   1.409   1_554  A
C295        C304   1.406       .  A
C300        C301   1.401       .  A
C300        F305   1.357       .  S
C301        C302   1.408   1_556  A
C301        H306   1.083       .  S
C302        C303   1.410       .  A
C303        C304   1.398       .  A
C303        F307   1.357       .  S
C304        H308   1.083       .  S
C309        C310   1.403       .  A
C309        C314   1.398       .  A
C309        H319   1.083       .  S
C310        C315   1.485       .  S
C310        C311   1.408   1_554  A
C311        C312   1.399       .  A
C311        F316   1.358       .  S
C312        C313   1.405   1_556  A
C312        H317   1.083       .  S
C313        C314   1.409       .  A
C314        F318   1.358       .  S
C315        C320   1.408       .  A
C315        C324   1.403   1_554  A
C320        C321   1.400       .  A
C320        F325   1.357       .  S
C321        C322   1.406   1_554  A
C321        H326   1.083       .  S
C322        C323   1.411       .  A
C323        C324   1.396       .  A
C323        F327   1.358       .  S
C324        H328   1.083       .  S
C329        C330   1.402       .  A
C329        C334   1.397       .  A
C329        H339   1.083       .  S
C330        C335   1.484       .  S
C330        C331   1.407       .  A
C331        C332   1.403       .  A
C331        F336   1.358       .  S
C332        C333   1.407       .  A
C332        H337   1.083       .  S
C333        C334   1.410       .  A
C334        F338   1.357   1_565  S
C335        C340   1.406   1_565  A
C335        C344   1.404       .  A
C340        C341   1.397       .  A
C340        F345   1.357       .  S
C341        C342   1.405   1_545  A
C341        H346   1.083       .  S
C342        C343   1.411       .  A
C343        C344   1.402       .  A
C343        F347   1.358       .  S
C344        H348   1.083       .  S
C349        C350   1.405       .  A
C349        C354   1.400       .  A
C349        H359   1.083       .  S
C350        C355   1.482       .  S
C350        C351   1.405   1_565  A
C351        C352   1.395       .  A
C351        F356   1.358       .  S
C352        C353   1.408       .  A
C352        H357   1.083       .  S
C353        C354   1.409   1_545  A
C354        F358   1.357       .  S
C355        C360   1.407       .  A
C355        C364   1.404   1_565  A
C360        C361   1.398       .  A
C360        F365   1.357       .  S
C361        C362   1.405       .  A
C361        H366   1.083       .  S
C362        C363   1.407   1_565  A
C363        C364   1.396       .  A
C363        F367   1.358       .  S
C364        H368   1.083       .  S
C369        C370   1.407       .  A
C369        C374   1.401       .  A
C369        H379   1.083       .  S
C370        C375   1.485       .  S
C370        C371   1.405       .  A
C371        C372   1.395       .  A
C371        F376   1.357       .  S
C372        C373   1.407       .  A
C372        H377   1.083       .  S
C373        C374   1.409       .  A
C374        F378   1.358       .  S
C375        C380   1.408       .  A
C375        C384   1.403       .  A
C380        C381   1.399       .  A
C380        F385   1.357       .  S
C381        C382   1.405       .  A
C381        H386   1.083       .  S
C382        C383   1.411       .  A
C383        C384   1.397       .  A
C383        F387   1.358       .  S
C384        H388   1.083       .  S
C389        C390   1.404       .  A
C389        C394   1.399       .  A
C389        H399   1.083       .  S
C390        C395   1.483       .  S
C390        C391   1.408       .  A
C391        C392   1.397       .  A
C391        F396   1.357       .  S
C392        C393   1.404       .  A
C392        H397   1.083       .  S
C393        C394   1.409       .  A
C394        F398   1.358       .  S
C395        C400   1.407       .  A
C395        C404   1.402       .  A
C400        C401   1.401       .  A
C400        F405   1.357       .  S
C401        C402   1.408       .  A
C401        H406   1.083       .  S
C402        C403   1.411       .  A
C403        C404   1.395       .  A
C403        F407   1.357       .  S
C404        H408   1.083       .  S
C409        C410   1.404   1_556  A
C409        C414   1.398       .  A
C409        H419   1.083       .  S
C410        C415   1.478       .  S
C410        C411   1.404       .  A
C411        C412   1.395       .  A
C411        F416   1.358       .  S
C412        C413   1.407       .  A
C412        H417   1.083       .  S
C413        C414   1.407   1_554  A
C414        F418   1.357       .  S
C415        C420   1.406       .  A
C415        C424   1.403   1_554  A
C420        C421   1.397       .  A
C420        F425   1.357       .  S
C421        C422   1.405   1_554  A
C421        H426   1.083       .  S
C422        C423   1.408       .  A
C423        C424   1.395       .  A
C423        F427   1.358       .  S
C424        H428   1.083       .  S
C429        C430   1.404       .  A
C429        C434   1.398       .  A
C429        H439   1.083       .  S
C430        C435   1.486       .  S
C430        C431   1.407   1_556  A
C431        C432   1.398       .  A
C431        F436   1.357       .  S
C432        C433   1.406       .  A
C432        H437   1.083       .  S
C433        C434   1.411   1_554  A
C434        F438   1.358       .  S
C435        C440   1.406       .  A
C435        C444   1.405   1_556  A
C440        C441   1.398       .  A
C440        F445   1.357       .  S
C441        C442   1.408       .  A
C441        H446   1.083       .  S
C442        C443   1.410   1_556  A
C443        C444   1.399       .  A
C443        F447   1.357       .  S
C444        H448   1.083       .  S
C449        C450   1.404       .  A
C449        C454   1.398       .  A
C449        H459   1.083       .  S
C450        C455   1.490       .  S
C450        C451   1.411   1_455  A
C451        C452   1.399       .  A
C451        F456   1.357       .  S
C452        C453   1.404   1_655  A
C452        H457   1.083       .  S
C453        C454   1.412       .  A
C454        F458   1.358       .  S
C455        C460   1.412       .  A
C455        C464   1.404   1_455  A
C460        C461   1.401       .  A
C460        F465   1.357       .  S
C461        C462   1.404       .  A
C461        H466   1.083       .  S
C462        C463   1.407   1_455  A
C463        C464   1.394       .  A
C463        F467   1.358       .  S
C464        H468   1.083       .  S
C469        C470   1.404       .  A
C469        C474   1.394       .  A
C469        H479   1.083       .  S
C470        C475   1.485   1_655  S
C470        C471   1.409   1_655  A
C471        C472   1.399       .  A
C471        F476   1.357       .  S
C472        C473   1.405   1_455  A
C472        H477   1.083       .  S
C473        C474   1.408       .  A
C474        F478   1.358       .  S
C475        C480   1.408   1_455  A
C475        C484   1.405       .  A
C480        C481   1.394       .  A
C480        F485   1.358       .  S
C481        C482   1.405   1_655  A
C481        H486   1.083       .  S
C482        C483   1.409       .  A
C483        C484   1.398       .  A
C483        F487   1.357       .  S
C484        H488   1.083       .  S
C489        C490   1.407   1_655  A
C489        C494   1.400   1_655  A
C489        H499   1.083       .  S
C490        C495   1.493       .  S
C490        C491   1.409       .  A
C491        C492   1.399       .  A
C491        F496   1.357       .  S
C492        C493   1.408       .  A
C492        H497   1.083       .  S
C493        C494   1.409       .  A
C494        F498   1.357   1_455  S
C495        C500   1.409       .  A
C495        C504   1.407   1_455  A
C500        C501   1.400       .  A
C500        F505   1.358       .  S
C501        C502   1.406   1_455  A
C501        H506   1.083       .  S
C502        C503   1.408       .  A
C503        C504   1.400       .  A
C503        F507   1.358       .  S
C504        H508   1.083       .  S
C509        C510   1.403       .  A
C509        C514   1.397   1_455  A
C509        H519   1.083       .  S
C510        C515   1.482       .  S
C510        C511   1.406       .  A
C511        C512   1.398   1_455  A
C511        F516   1.357       .  S
C512        C513   1.407       .  A
C512        H517   1.083       .  S
C513        C514   1.411       .  A
C514        F518   1.357       .  S
C515        C520   1.406       .  A
C515        C524   1.404   1_455  A
C520        C521   1.399       .  A
C520        F525   1.358       .  S
C521        C522   1.408       .  A
C521        H526   1.083       .  S
C522        C523   1.408       .  A
C523        C524   1.397   1_455  A
C523        F527   1.357   1_455  S
C524        H528   1.083       .  S
C529        C530   1.403   1_565  A
C529        C534   1.395       .  A
C529        H539   1.083       .  S
C530        C535   1.484       .  S
C530        C531   1.406       .  A
C531        C532   1.399       .  A
C531        F536   1.358       .  S
C532        C533   1.408       .  A
C532        H537   1.083       .  S
C533        C534   1.410   1_545  A
C534        F538   1.358       .  S
C535        C540   1.405       .  A
C535        C544   1.406   1_545  A
C540        C541   1.394       .  A
C540        F545   1.358       .  S
C541        C542   1.408   1_545  A
C541        H546   1.083       .  S
C542        C543   1.408       .  A
C543        C544   1.400       .  A
C543        F547   1.357       .  S
C544        H548   1.083       .  S
C549        C550   1.405       .  A
C549        C554   1.400       .  A
C549        H559   1.083       .  S
C550        C555   1.487       .  S
C550        C551   1.408       .  A
C551        C552   1.397       .  A
C551        F556   1.357       .  S
C552        C553   1.405       .  A
C552        H557   1.083   1_545  S
C553        C554   1.409       .  A
C554        F558   1.358       .  S
C555        C560   1.408   1_545  A
C555        C564   1.404       .  A
C560        C561   1.401       .  A
C560        F565   1.358       .  S
C561        C562   1.408   1_565  A
C561        H566   1.083       .  S
C562        C563   1.409       .  A
C563        C564   1.397       .  A
C563        F567   1.357       .  S
C564        H568   1.083       .  S
C569        C570   1.406       .  A
C569        C574   1.399       .  A
C569        H579   1.083   1_655  S
C570        C575   1.486   1_654  S
C570        C571   1.406   1_554  A
C571        C572   1.398       .  A
C571        F576   1.357       .  S
C572        C573   1.405   1_556  A
C572        H577   1.083       .  S
C573        C574   1.409       .  A
C574        F578   1.358       .  S
C575        C580   1.405   1_456  A
C575        C584   1.406       .  A
C580        C581   1.397       .  A
C580        F585   1.357       .  S
C581        C582   1.408   1_654  A
C581        H586   1.083       .  S
C582        C583   1.410       .  A
C583        C584   1.400       .  A
C583        F587   1.358       .  S
C584        H588   1.083       .  S
C589        C590   1.406       .  A
C589        C594   1.396       .  A
C589        H599   1.083       .  S
C590        C595   1.486   1_556  S
C590        C591   1.409   1_556  A
C591        C592   1.399       .  A
C591        F596   1.358       .  S
C592        C593   1.405   1_554  A
C592        H597   1.084       .  S
C593        C594   1.405       .  A
C594        F598   1.357       .  S
C595        C600   1.407   1_455  A
C595        C604   1.405   1_554  A
C600        C601   1.398       .  A
C600        F605   1.357       .  S
C601        C602   1.407       .  A
C601        H606   1.083       .  S
C602        C603   1.409   1_654  A
C603        C604   1.397       .  A
C603        F607   1.357       .  S
C604        H608   1.083       .  S
C609        C610   1.400       .  A
C609        C614   1.394       .  A
C609        H619   1.083       .  S
C610        C615   1.482       .  S
C610        C611   1.408   1_546  A
C611        C612   1.402       .  A
C611        F616   1.358       .  S
C612        C613   1.407   1_554  A
C612        H617   1.083       .  S
C613        C614   1.412   1_565  A
C614        F618   1.357       .  S
C615        C620   1.407   1_545  A
C615        C624   1.402   1_556  A
C620        C621   1.398       .  A
C620        F625   1.357       .  S
C621        C622   1.405   1_566  A
C621        H626   1.083       .  S
C622        C623   1.411       .  A
C623        C624   1.397       .  A
C623        F627   1.358       .  S
C624        H628   1.083       .  S
C629        C630   1.405   1_565  A
C629        C634   1.399       .  A
C629        H639   1.083       .  S
C630        C635   1.483       .  S
C630        C631   1.406   1_554  A
C631        C632   1.393       .  A
C631        F636   1.357       .  S
C632        C633   1.404   1_545  A
C632        H637   1.083       .  S
C633        C634   1.408   1_556  A
C634        F638   1.356       .  S
C635        C640   1.406       .  A
C635        C644   1.404   1_544  A
C640        C641   1.398       .  A
C640        F645   1.358       .  S
C641        C642   1.408       .  A
C641        H646   1.083       .  S
C642        C643   1.410   1_544  A
C643        C644   1.395       .  A
C643        F647   1.357       .  S
C644        H648   1.083       .  S
C649        C650   1.401   1_565  A
C649        C654   1.397       .  A
C649        H659   1.083       .  S
C650        C655   1.479       .  S
C650        C651   1.407   1_455  A
C651        C652   1.398       .  A
C651        F656   1.358       .  S
C652        C653   1.407   1_645  A
C652        H657   1.083       .  S
C653        C654   1.412       .  A
C654        F658   1.357       .  S
C655        C660   1.407   1_545  A
C655        C664   1.401   1_455  A
C660        C661   1.401   1_565  A
C660        F665   1.357       .  S
C661        C662   1.406   1_455  A
C661        H666   1.083   1_545  S
C662        C663   1.410       .  A
C663        C664   1.393       .  A
C663        F667   1.358       .  S
C664        H668   1.083       .  S
C669        C670   1.404   1_545  A
C669        C674   1.395       .  A
C669        H679   1.083       .  S
C670        C675   1.483       .  S
C670        C671   1.408       .  A
C671        C672   1.400       .  A
C671        F676   1.357       .  S
C672        C673   1.404       .  A
C672        H677   1.083       .  S
C673        C674   1.406   1_565  A
C674        F678   1.358       .  S
C675        C680   1.405   1_565  A
C675        C684   1.405   1_655  A
C680        C681   1.396       .  A
C680        F685   1.358       .  S
C681        C682   1.407       .  A
C681        H686   1.083       .  S
C682        C683   1.410   1_645  A
C683        C684   1.399       .  A
C683        F687   1.356       .  S
C684        H688   1.083       .  S
