geometry optimzed in LAMMPS
_audit_creation_date              2020-11-30 
_audit_creation_method            'lammps2cif' 
_symmetry_space_group_name_H-M    'P1' 
_symmetry_Int_Tables_number       1 
_symmetry_cell_setting            triclinic 
loop_ 
_symmetry_equiv_pos_as_xyz 
  x,y,z 
_cell_length_a                    52.1744713 
_cell_length_b                    50.93953393143695 
_cell_length_c                    40.48379447108322 
_cell_angle_alpha                 90.10200486458662 
_cell_angle_beta                  89.71677678756635 
_cell_angle_gamma                 89.98506127650445 
loop_ 
_atom_site_label 
_atom_site_type_symbol 
_atom_site_fract_x 
_atom_site_fract_y 
_atom_site_fract_z 
_atom_site_charge 
O1          O  0.25980520  0.20659067  0.40358037    -0.86600
O2          O  0.25982890  0.20419805  0.59233106    -0.86700
O3          O  0.30163115  0.17391564  0.49821117    -0.88400
O4          O  0.21874546  0.17672602  0.49873558    -0.87100
O5          O  0.18864199  0.20934715  0.49801161    -0.86700
O6          O  0.33350576  0.20463772  0.50027076    -0.88100
O7          O  0.26071991  0.17382702  0.55029815    -0.86600
O8          O  0.25901259  0.17569256  0.44481230    -0.86200
Zr9        Zr  0.26082982  0.19714009  0.49810512     2.84300
O10         O  0.23525364  0.22333914  0.53236872    -1.08100
O11         O  0.28739619  0.22263285  0.46433316    -1.08900
C12         C  0.25833174  0.18256673  0.41420104     1.06600
C13         C  0.26014014  0.18030628  0.58111068     1.06500
C14         C  0.32544124  0.18065266  0.49978317     1.09500
C15         C  0.19536855  0.18496378  0.49828220     1.07300
H16         H  0.29734479  0.21061961  0.54634885     0.32800
O17         O  0.28690640  0.22200004  0.53291444    -1.29100
H18         H  0.22479640  0.21386010  0.45085857     0.32500
O19         O  0.23602141  0.22436860  0.46442107    -1.30800
O20         O  0.26256452  0.29157775  0.59497292    -0.86600
O21         O  0.26250624  0.29486386  0.40568561    -0.88000
O22         O  0.33353412  0.24925060  0.55321172    -0.86600
O23         O  0.18891067  0.25049052  0.55143335    -0.86700
O24         O  0.18988021  0.25383881  0.44546392    -0.86400
O25         O  0.33507565  0.24628789  0.44584641    -0.86200
O26         O  0.30563888  0.32224496  0.50029636    -0.86600
O27         O  0.22312126  0.32492722  0.50043479    -0.86000
O28         O  0.33575791  0.28967173  0.49918340    -0.87100
O29         O  0.19117278  0.29411937  0.49973165    -0.86200
O30         O  0.30337319  0.24873916  0.59469621    -0.86600
O31         O  0.30539832  0.24803170  0.40433002    -0.86400
O32         O  0.22007149  0.25187058  0.40397178    -0.86000
O33         O  0.21821932  0.24887338  0.59335870    -0.86400
O34         O  0.26547155  0.32268940  0.55415674    -0.86700
O35         O  0.26334873  0.32471268  0.44809194    -0.88100
Zr36       Zr  0.26124903  0.24842917  0.56747887     2.83100
Zr37       Zr  0.26256752  0.25022292  0.43046471     2.83500
Zr38       Zr  0.31329289  0.24777184  0.49918247     2.84100
Zr39       Zr  0.21108976  0.25108671  0.49872639     2.83400
Zr40       Zr  0.26373376  0.30159906  0.50033614     2.84200
O41         O  0.23759740  0.27688556  0.46545931    -1.08600
O42         O  0.28812818  0.27412896  0.53372691    -1.08100
C43         C  0.26461355  0.31560550  0.58474352     1.06500
C44         C  0.26261428  0.31876393  0.41711344     1.09100
C45         C  0.32683067  0.24965145  0.58398703     1.06700
C46         C  0.19490861  0.24958399  0.58229622     1.07100
C47         C  0.19665503  0.25352963  0.41473959     1.06600
C48         C  0.32879315  0.24664456  0.41498446     1.06200
C49         C  0.32902449  0.31408212  0.49958584     1.06600
C50         C  0.19933608  0.31800972  0.50013265     1.06100
H51         H  0.30002622  0.28621440  0.45214973     0.32800
O52         O  0.28888004  0.27532221  0.46545466    -1.29700
H53         H  0.22618936  0.28750103  0.54742415     0.32800
O54         O  0.23675534  0.27624396  0.53377529    -1.31100
N55         N  0.05165634  0.00145497  0.50201785    -0.36700
N56         N  0.50992679  0.03881733  0.51655892    -0.57200
N57         N  0.47365657  0.99583389  0.51093991    -0.36700
N58         N  0.51528068  0.45951208  0.48406635    -0.57200
C59         C  0.06473271  0.02394527  0.50703145     0.26900
C60         C  0.06653189  0.48024413  0.48299076     0.26900
C61         C  0.45782990  0.01582347  0.51920457     0.26900
C62         C  0.46143909  0.47473020  0.49371039     0.26900
C63         C  0.02991252  0.05540708  0.49402355     0.35500
C64         C  0.48836128  0.05251190  0.51026136     0.35500
C65         C  0.03521662  0.44401020  0.47619543     0.35500
C66         C  0.49558998  0.44258624  0.48063344     0.35500
C67         C  0.08892565  0.01828966  0.51918122    -0.22000
C68         C  0.08962068  0.48972944  0.49488885    -0.22000
C69         C  0.43439279  0.00586879  0.52950578    -0.22000
C70         C  0.43824882  0.48124913  0.50845732    -0.22000
C71         C  0.02071221  0.07962883  0.48402825    -0.23000
C72         C  0.49440162  0.07786475  0.50057679    -0.23000
C73         C  0.02853015  0.41791844  0.47171288    -0.23000
C74         C  0.50461907  0.41786935  0.47225307    -0.23000
C75         C  0.05598068  0.04926622  0.49881120    -0.17800
C76         C  0.06047362  0.45339721  0.47955044    -0.18400
C77         C  0.46986007  0.44888279  0.48766103    -0.18400
C78         C  0.46330805  0.04272059  0.51465028    -0.18400
H79         H  0.10401578  0.03204877  0.52518821     0.14500
H80         H  0.10581462  0.47850014  0.50367168     0.14500
H81         H  0.41760298  0.01688789  0.53702047     0.14500
H82         H  0.42403916  0.46798792  0.51856513     0.14500
H83         H  0.03174790  0.09679470  0.47723572     0.12800
H84         H  0.48126390  0.09347661  0.49418363     0.12800
H85         H  0.04126525  0.40133374  0.46840289     0.12800
H86         H  0.49351947  0.40016636  0.46857620     0.12800
H87         H  0.03460864  0.99968959  0.48909081     0.26100
H88         H  0.49097120  0.99763128  0.49837100     0.26100
O89         O  0.48782607  0.45502825  0.90277876    -0.86600
O90         O  0.48668263  0.45232941  0.09165142    -0.86700
O91         O  0.02782573  0.42384987  0.99668456    -0.88400
O92         O  0.44429914  0.42350027  0.99763296    -0.87100
O93         O  0.41342335  0.45544358  0.99882789    -0.86700
O94         O  0.05818859  0.45623312  0.99671049    -0.88100
O95         O  0.48515006  0.42197338  0.04960199    -0.86600
O96         O  0.48600842  0.42348229  0.94337061    -0.86200
Zr97       Zr  0.48590047  0.44505600  0.99694603     2.84300
O98         O  0.46039677  0.47090281  0.03171522    -1.08100
O99         O  0.01096983  0.47158608  0.96393976    -1.08900
C100        C  0.48725577  0.43083118  0.91291029     1.06600
C101        C  0.48596729  0.42840736  0.08047094     1.06500
C102        C  0.05127468  0.43194582  0.99650954     1.09500
C103        C  0.42076232  0.43127546  0.99845996     1.07300
H104        H  0.02250761  0.45958259  0.04529288     0.32800
O105        O  0.01143817  0.47063282  0.03228224    -1.29100
H106        H  0.44933792  0.46080191  0.94974335     0.32500
O107        O  0.46019452  0.47165201  0.96340474    -1.30800
O108        O  0.48653287  0.04051790  0.09332674    -0.86600
O109        O  0.48527015  0.04169076  0.90354374    -0.88000
O110        O  0.05808760  0.49813824  0.05045236    -0.86600
O111        O  0.41358261  0.49569901  0.05166373    -0.86700
O112        O  0.41336993  0.49946582  0.94526432    -0.86400
O113        O  0.05712028  0.49843906  0.94503651    -0.86200
O114        O  0.02797025  0.07051879  0.99875169    -0.86600
O115        O  0.44400995  0.07194092  0.00080093    -0.86000
O116        O  0.05859184  0.03848140  0.99978569    -0.87100
O117        O  0.41321841  0.04003364  0.99976520    -0.86200
O118        O  0.02885616  0.49723911  0.09280965    -0.86600
O119        O  0.02937300  0.99674614  0.90420564    -0.86400
O120        O  0.44340518  0.99968003  0.90234495    -0.86000
O121        O  0.44331333  0.49571170  0.09323533    -0.86400
O122        O  0.48738186  0.07129117  0.05195147    -0.86700
O123        O  0.48368539  0.07199888  0.94555602    -0.88100
Zr124      Zr  0.48596282  0.49670265  0.06681796     2.83100
Zr125      Zr  0.48581770  0.49877691  0.92959571     2.83500
Zr126      Zr  0.03594923  0.49791633  0.99821018     2.84100
Zr127      Zr  0.43489531  0.49759720  0.99842159     2.83400
Zr128      Zr  0.48514928  0.04982834  0.99855322     2.84200
O129        O  0.45993266  0.02387835  0.96394538    -1.08600
O130        O  0.01103389  0.02309302  0.03259838    -1.08100
C131        C  0.48791293  0.06453952  0.08265281     1.06500
C132        C  0.48407840  0.06556730  0.91468876     1.09100
C133        C  0.05216413  0.49787794  0.08139568     1.06700
C134        C  0.41995024  0.49526415  0.08242349     1.07100
C135        C  0.41991124  0.00093258  0.91299872     1.06600
C136        C  0.05269226  0.99645433  0.91531459     1.06200
C137        C  0.05148735  0.06274845  0.99962727     1.06600
C138        C  0.42048120  0.06424048  0.00122200     1.06100
H139        H  0.02284097  0.03425787  0.95088332     0.32800
O140        O  0.01181051  0.02329919  0.96420269    -1.29700
H141        H  0.44850263  0.03437738  0.04618052     0.32800
O142        O  0.45929922  0.02347101  0.03236411    -1.31100
N143        N  0.27487543  0.24701463  0.02055261    -0.36700
N144        N  0.23701738  0.28807179  0.01228216    -0.57200
N145        N  0.19653648  0.24888780  0.01226019    -0.36700
N146        N  0.23446955  0.20772966  0.01744821    -0.57200
C147        C  0.29013363  0.26766719  0.01321510     0.26900
C148        C  0.28880342  0.22507039  0.01500809     0.26900
C149        C  0.18310222  0.27030713  0.00302406     0.26900
C150        C  0.18160723  0.22770019  0.00648860     0.26900
C151        C  0.25771694  0.30315179  0.01834002     0.35500
C152        C  0.21657572  0.30425926  0.01326194     0.35500
C153        C  0.25450438  0.19182164  0.02380096     0.35500
C154        C  0.21322099  0.19284667  0.02059957     0.35500
C155        C  0.31418944  0.25877777  0.00372718    -0.22000
C156        C  0.31331573  0.23187722  0.00470223    -0.22000
C157        C  0.15914511  0.26269248  0.99179174    -0.22000
C158        C  0.15819565  0.23578315  0.99400112    -0.22000
C159        C  0.25044844  0.32907836  0.02296480    -0.23000
C160        C  0.22431784  0.32977876  0.01977112    -0.23000
C161        C  0.24600736  0.16668305  0.03094979    -0.23000
C162        C  0.21979298  0.16733389  0.02896152    -0.23000
C163        C  0.28321162  0.29434404  0.01592242    -0.18400
C164        C  0.28039786  0.19906094  0.02013184    -0.18400
C165        C  0.18817536  0.20135108  0.01327741    -0.18400
C166        C  0.19119873  0.29662820  0.00643739    -0.18400
H167        H  0.33067852  0.27042058  0.99670986     0.14500
H168        H  0.32900038  0.21882286  0.99851891     0.14500
H169        H  0.14384716  0.27523993  0.98313136     0.14500
H170        H  0.14205401  0.22357965  0.98728393     0.14500
H171        H  0.26272929  0.34583270  0.02736095     0.12800
H172        H  0.21243997  0.34715693  0.02147983     0.12800
H173        H  0.25752363  0.14955278  0.03633239     0.12800
H174        H  0.20707518  0.15078416  0.03254324     0.12800
H175        H  0.25695959  0.24790950  0.03179720     0.26100
H176        H  0.21366043  0.24896407  0.02513287     0.26100
C177        C  0.03432721  0.24851200  0.27570808     0.86400
C178        C  0.03210067  0.22360513  0.25466343    -0.53800
C179        C  0.51222224  0.22215843  0.23393533     0.09300
C180        C  0.49483050  0.24673332  0.23673541     0.20300
C181        C  0.03202399  0.27132280  0.25105459    -0.54500
C182        C  0.51227941  0.27051519  0.22866357     0.09400
C183        C  0.51079255  0.25082953  0.29282469    -0.54100
C184        C  0.48917450  0.24969025  0.27392194     0.10000
H185        H  0.04664836  0.20836640  0.25484836     0.14500
H186        H  0.47730175  0.24550119  0.22143474     0.00300
H187        H  0.04584525  0.28724122  0.25013714     0.14800
H188        H  0.50941242  0.25346511  0.31928223     0.14600
C189        C  0.21160265  0.50042653  0.22629126     0.86400
C190        C  0.21401707  0.47741086  0.25047559    -0.53800
C191        C  0.23658563  0.47644609  0.26752219     0.09300
C192        C  0.25502931  0.49932369  0.25874875     0.20300
C193        C  0.21484266  0.02502320  0.24932698    -0.54500
C194        C  0.23780234  0.02479992  0.26525727     0.09400
C195        C  0.23554718  0.49847716  0.20418219    -0.54100
C196        C  0.25836237  0.49836553  0.22080928     0.10000
H197        H  0.19914954  0.46267888  0.25323285     0.14500
H198        H  0.27336182  0.49911698  0.27254765     0.00300
H199        H  0.20181786  0.04128616  0.25278861     0.14800
H200        H  0.23437756  0.49758159  0.17743674     0.14600
C201        C  0.03406393  0.24622766  0.72706701     0.86400
C202        C  0.02995047  0.27113177  0.74782784    -0.53800
C203        C  0.50795611  0.27165336  0.76507719     0.09300
C204        C  0.49082889  0.24724546  0.76030516     0.20300
C205        C  0.03087646  0.22336079  0.75168921    -0.54500
C206        C  0.50791217  0.22365843  0.76927935     0.09400
C207        C  0.51002601  0.24375401  0.70545066    -0.54100
C208        C  0.48724354  0.24501744  0.72252118     0.10000
H209        H  0.04366448  0.28716427  0.74853691     0.14500
H210        H  0.47268001  0.24790087  0.77467977     0.00300
H211        H  0.04396732  0.20702095  0.75385232     0.14800
H212        H  0.51095306  0.24223208  0.67871655     0.14600
C213        C  0.21259775  0.49842874  0.77048812     0.86400
C214        C  0.21614274  0.02200171  0.74644122    -0.53800
C215        C  0.23854882  0.02249118  0.72893443     0.09300
C216        C  0.25542676  0.49850174  0.73616805     0.20300
C217        C  0.21596609  0.47468868  0.74723594    -0.54500
C218        C  0.23796719  0.47470692  0.72892286     0.09400
C219        C  0.23704740  0.49759725  0.79169528    -0.54100
C220        C  0.25958666  0.49779836  0.77397381     0.10000
H221        H  0.20206669  0.03766137  0.74492300     0.14500
H222        H  0.27338822  0.49854962  0.72137950     0.00300
H223        H  0.20342810  0.45783586  0.74678904     0.14800
H224        H  0.23650559  0.49713209  0.81850100     0.14600
C225        C  0.09331465  0.49756049  0.15982225    -0.27700
C226        C  0.11810698  0.49824783  0.14616934     0.01900
C227        C  0.11917676  0.99647045  0.11410241     0.30000
C228        C  0.09785817  0.99567885  0.09353390    -0.19500
C229        C  0.07439062  0.49823452  0.10467503    -0.28900
C230        C  0.07154173  0.49740830  0.13941985     0.44100
C231        C  0.14099997  0.49854970  0.16772422     0.05200
O232        O  0.14323394  0.99562685  0.10029105    -0.57400
H233        H  0.10129967  0.99408590  0.06720194     0.18200
O234        O  0.04771251  0.49677569  0.15380911    -0.64100
H235        H  0.09085722  0.49699535  0.18639955     0.16600
C236        C  0.14471423  0.02119412  0.18895505     0.28900
C237        C  0.16729563  0.02191056  0.20752306    -0.25000
C238        C  0.18655417  0.49989730  0.20616824    -0.24300
C239        C  0.17981305  0.47720840  0.18778207     0.40300
C240        C  0.15732889  0.47673906  0.16881999    -0.26700
O241        O  0.12896322  0.04277184  0.18859312    -0.58600
H242        H  0.17095148  0.03983911  0.22072302     0.16000
O243        O  0.19551667  0.45558342  0.18742247    -0.60100
H244        H  0.15271443  0.45930131  0.15467995     0.14400
H245        H  0.04396529  0.47789086  0.15726194     0.46300
H246        H  0.13535666  0.05377477  0.17012514     0.41600
H247        H  0.18625005  0.44195548  0.20023307     0.45100
H248        H  0.14839345  0.01424436  0.09766018     0.36600
C249        C  0.30905444  0.01286682  0.15668985    -0.27700
C250        C  0.33103631  0.49842364  0.16883344     0.01900
C251        C  0.32800025  0.48402572  0.19820089     0.30000
C252        C  0.30457919  0.48474077  0.21541015    -0.19500
C253        C  0.28373872  0.49938950  0.20352077    -0.28900
C254        C  0.28582655  0.01446639  0.17408682     0.44100
C255        C  0.35445936  0.49593889  0.14809693     0.05200
O256        O  0.34748926  0.46849712  0.20966830    -0.57400
H257        H  0.30256488  0.47309236  0.23746748     0.18200
O258        O  0.26714505  0.03103280  0.16267482    -0.64100
H259        H  0.31138488  0.02408278  0.13415066     0.16600
C260        C  0.35256438  0.48626393  0.11567170     0.28900
C261        C  0.37415591  0.48554706  0.09521771    -0.25000
C262        C  0.39821907  0.49427725  0.10641561    -0.24300
C263        C  0.39845617  0.00298320  0.13826519     0.40300
C264        C  0.37664513  0.00322471  0.15894557    -0.26700
O265        O  0.32950624  0.47773425  0.10353729    -0.58600
H266        H  0.37189207  0.47827764  0.07023162     0.16000
O267        O  0.42102339  0.01309009  0.14992708    -0.60100
H268        H  0.37817883  0.01110167  0.18373028     0.14400
H269        H  0.27096907  0.04831784  0.17281688     0.46300
H270        H  0.32779204  0.45937296  0.11134227     0.41600
H271        H  0.42955200  0.99824672  0.16127101     0.45100
H272        H  0.34519663  0.45133667  0.19845700     0.36600
C273        C  0.00420598  0.38454078  0.15427394    -0.27700
C274        C  0.49164791  0.36081469  0.14463474     0.01900
C275        C  0.47459226  0.36086994  0.11776820     0.30000
C276        C  0.47232190  0.38327684  0.09779353    -0.19500
C277        C  0.48654964  0.40618662  0.10439201    -0.28900
C278        C  0.00178146  0.40692452  0.13424052     0.44100
C279        C  0.49637433  0.33653034  0.16433925     0.05200
O280        O  0.46063680  0.33887170  0.11018907    -0.57400
H281        H  0.45966143  0.38259105  0.07666646     0.18200
O282        O  0.01619259  0.42871678  0.14127694    -0.64100
H283        H  0.01682558  0.38530230  0.17542172     0.16600
C284        C  0.02052558  0.32686313  0.17063777     0.28900
C285        C  0.02485778  0.30478103  0.19051900    -0.25000
C286        C  0.50596217  0.29199091  0.20476052    -0.24300
C287        C  0.48090174  0.30225876  0.20179600     0.40300
C288        C  0.47626677  0.32416276  0.18152077    -0.26700
O289        O  0.04074267  0.33794002  0.15394646    -0.58600
H290        H  0.04424021  0.29736014  0.19257280     0.16000
O291        O  0.46094666  0.29188099  0.21963278    -0.60100
H292        H  0.45702982  0.33208075  0.18011950     0.14400
H293        H  0.00645365  0.43822908  0.15866471     0.46300
H294        H  0.05000665  0.34853415  0.17063757     0.41600
H295        H  0.46091621  0.30159138  0.24088781     0.45100
H296        H  0.47172556  0.32852062  0.09505018     0.36600
C297        C  0.48353005  0.10832500  0.15966562    -0.27700
C298        C  0.49580597  0.13134640  0.14851947     0.01900
C299        C  0.00757891  0.13169893  0.11763561     0.30000
C300        C  0.00526150  0.10984893  0.09666239    -0.19500
C301        C  0.49099402  0.08668009  0.10657688    -0.28900
C302        C  0.48109191  0.08615162  0.13904631     0.44100
C303        C  0.49844003  0.15462045  0.17088212     0.05200
O304        O  0.02272551  0.15239852  0.10805722    -0.57400
H305        H  0.01473242  0.11041900  0.07281224     0.18200
O306        O  0.46872127  0.06431300  0.15079316    -0.64100
H307        H  0.47552491  0.10764051  0.18438870     0.16600
C308        C  0.49122624  0.18014214  0.16086889     0.28900
C309        C  0.49542338  0.20180760  0.18170199    -0.25000
C310        C  0.50643842  0.19861178  0.21302038    -0.24300
C311        C  0.01015203  0.17288998  0.22527352     0.40300
C312        C  0.00678002  0.15140542  0.20397092    -0.26700
O313        O  0.48000204  0.18418732  0.13075374    -0.58600
H314        H  0.49048711  0.22123989  0.17297604     0.16000
O315        O  0.01841234  0.16826471  0.25684243    -0.60100
H316        H  0.01153680  0.13190597  0.21266181     0.14400
H317        H  0.45051776  0.06667323  0.14450958     0.46300
H318        H  0.46142488  0.18134321  0.13454103     0.41600
H319        H  0.00261972  0.16789362  0.27058157     0.45100
H320        H  0.01390730  0.16044450  0.08892358     0.36600
C321        C  0.14921808  0.35102457  0.97318093    -0.27700
C322        C  0.13351136  0.35613857  0.00074026     0.01900
C323        C  0.13732363  0.34195441  0.03017412     0.30000
C324        C  0.15617370  0.32262247  0.03153911    -0.19500
C325        C  0.17159902  0.31738552  0.00398171    -0.28900
C326        C  0.16824006  0.33172941  0.97468758     0.44100
C327        C  0.11254805  0.37551495  0.99841119     0.05200
O328        O  0.12265792  0.34679315  0.05772821    -0.57400
H329        H  0.15884863  0.31167071  0.05418734     0.18200
O330        O  0.18334983  0.32692936  0.94752049    -0.64100
H331        H  0.14634559  0.36158066  0.95029042     0.16600
C332        C  0.11722066  0.40148465  0.98835372     0.28900
C333        C  0.09703285  0.41951613  0.98741371    -0.25000
C334        C  0.07197221  0.41205902  0.99643110    -0.24300
C335        C  0.06740051  0.38590367  0.00628546     0.40300
C336        C  0.08757252  0.36792387  0.00701333    -0.26700
O337        O  0.14163915  0.40974734  0.98111159    -0.58600
H338        H  0.10114294  0.43948341  0.97987992     0.16000
O339        O  0.04362204  0.37794234  0.01683375    -0.60100
H340        H  0.08370765  0.34792780  0.01464969     0.14400
H341        H  0.17486571  0.31223550  0.93576128     0.46300
H342        H  0.14228788  0.41130781  0.95670272     0.41600
H343        H  0.03588913  0.36891883  0.99757408     0.45100
H344        H  0.13083209  0.36208238  0.06862472     0.36600
C345        C  0.38448766  0.36741084  0.98650937    -0.27700
C346        C  0.36111625  0.37338084  0.00197091     0.01900
C347        C  0.35727621  0.39841598  0.01577072     0.30000
C348        C  0.37681814  0.41707791  0.01428879    -0.19500
C349        C  0.40047690  0.41108544  0.99930629    -0.28900
C350        C  0.40423727  0.38593902  0.98540802     0.44100
C351        C  0.34130636  0.35295894  0.00515629     0.05200
O352        O  0.33455065  0.40470856  0.03103250    -0.57400
H353        H  0.37354205  0.43618680  0.02534002     0.18200
O354        O  0.42685502  0.37945337  0.97001791    -0.64100
H355        H  0.38763994  0.34810204  0.97597113     0.16600
C356        C  0.33019485  0.34137497  0.97708857     0.28900
C357        C  0.31120213  0.32229295  0.98097033    -0.25000
C358        C  0.30354686  0.31429196  0.01260460    -0.24300
C359        C  0.31486899  0.32555748  0.04063951     0.40300
C360        C  0.33356146  0.34491604  0.03680102    -0.26700
O361        O  0.33705706  0.34933890  0.94592340    -0.58600
H362        H  0.30236990  0.31370674  0.95932237     0.16000
O363        O  0.30736792  0.31817545  0.07177435    -0.60100
H364        H  0.34215529  0.35361248  0.05853911     0.14400
H365        H  0.43693444  0.36992497  0.98690054     0.46300
H366        H  0.34846291  0.33532112  0.93728559     0.41600
H367        H  0.31796667  0.30257866  0.07703008     0.45100
H368        H  0.32363238  0.41211032  0.01335633     0.36600
C369        C  0.38572790  0.12898087  0.01623442    -0.27700
C370        C  0.36015993  0.12130066  0.01199445     0.01900
C371        C  0.35457843  0.09506393  0.00400638     0.30000
C372        C  0.37440813  0.07698889  0.99993301    -0.19500
C373        C  0.40013413  0.08445091  0.00424984    -0.28900
C374        C  0.40566741  0.11084711  0.01254373     0.44100
C375        C  0.33941310  0.14087583  0.01490962     0.05200
O376        O  0.32972030  0.08681332  0.00041130    -0.57400
H377        H  0.36946626  0.05694421  0.99367099     0.18200
O378        O  0.43031567  0.11907367  0.01806312    -0.64100
H379        H  0.39029521  0.14919855  0.02211486     0.16600
C380        C  0.33665605  0.15654968  0.04342061     0.28900
C381        C  0.31685381  0.17499295  0.04529381    -0.25000
C382        C  0.29987687  0.17807176  0.01890015    -0.24300
C383        C  0.30256544  0.16244275  0.99047370     0.40300
C384        C  0.32223274  0.14396853  0.98862629    -0.26700
O385        O  0.35271110  0.15338761  0.06986040    -0.58600
H386        H  0.31486330  0.18711862  0.06717711     0.16000
O387        O  0.28617892  0.16527447  0.96432150    -0.60100
H388        H  0.32433223  0.13226670  0.96639864     0.14400
H389        H  0.43611927  0.12679584  0.99683025     0.46300
H390        H  0.36427862  0.16882831  0.06940846     0.41600
H391        H  0.29270424  0.18064557  0.95184642     0.45100
H392        H  0.32395827  0.08195596  0.02296628     0.36600
C393        C  0.08561382  0.12882668  0.00139594    -0.27700
C394        C  0.11122117  0.12100090  0.00346871     0.01900
C395        C  0.11737033  0.09418094  0.00392172     0.30000
C396        C  0.09779109  0.07545001  0.00268866    -0.19500
C397        C  0.07187591  0.08311597  0.00062926    -0.28900
C398        C  0.06598740  0.11024831  0.99993805     0.44100
C399        C  0.13121352  0.14123156  0.00585828     0.05200
O400        O  0.14236376  0.08615605  0.00679264    -0.57400
H401        H  0.10301755  0.05488003  0.00349435     0.18200
O402        O  0.04121109  0.11898789  0.99738542    -0.64100
H403        H  0.08081782  0.14952731  0.00090718     0.16600
C404        C  0.14818782  0.14587122  0.97942248     0.28900
C405        C  0.16657113  0.16569454  0.98199750    -0.25000
C406        C  0.16798624  0.18113426  0.01063307    -0.24300
C407        C  0.15080334  0.17674605  0.03686320     0.40300
C408        C  0.13253134  0.15681157  0.03438431    -0.26700
O409        O  0.14681907  0.13126332  0.95099437    -0.58600
H410        H  0.17977355  0.16907375  0.96170191     0.16000
O411        O  0.15218124  0.19143413  0.06521681    -0.60100
H412        H  0.11937788  0.15343468  0.05473730     0.14400
H413        H  0.03596167  0.12365770  0.02022423     0.46300
H414        H  0.13391196  0.14027557  0.93714405     0.41600
H415        H  0.13986494  0.20603121  0.06199954     0.45100
H416        H  0.14786740  0.08148144  0.98405069     0.36600
C417        C  0.35368635  0.01277871  0.87627040    -0.27700
C418        C  0.35561679  0.50007438  0.84634641     0.01900
C419        C  0.38019136  0.49230937  0.83544887     0.30000
C420        C  0.40115188  0.49305619  0.85731282    -0.19500
C421        C  0.39856212  0.00303918  0.88849195    -0.28900
C422        C  0.37458110  0.01386834  0.89781519     0.44100
C423        C  0.33233719  0.49744228  0.82535290     0.05200
O424        O  0.38380882  0.48337546  0.80379932    -0.57400
H425        H  0.41969562  0.48625880  0.84871522     0.18200
O426        O  0.37115457  0.02540302  0.92816809    -0.64100
H427        H  0.33534754  0.02049037  0.88440810     0.16600
C428        C  0.31188504  0.48134856  0.83570617     0.28900
C429        C  0.28880082  0.48108028  0.81815831    -0.25000
C430        C  0.28528508  0.49704972  0.79027010    -0.24300
C431        C  0.30621593  0.01279078  0.77756161     0.40300
C432        C  0.32954262  0.01322712  0.79494825    -0.26700
O433        O  0.31440444  0.46561311  0.86297190    -0.58600
H434        H  0.27343986  0.46846232  0.82670036     0.16000
O435        O  0.30359827  0.02857248  0.75039835    -0.60100
H436        H  0.34493330  0.02580488  0.78639070     0.14400
H437        H  0.37584984  0.04409491  0.92497831     0.46300
H438        H  0.30502526  0.47482487  0.88093534     0.41600
H439        H  0.29657823  0.04534190  0.75901648     0.45100
H440        H  0.38049924  0.46422362  0.80483577     0.36600
C441        C  0.09357548  0.99720181  0.83620490    -0.27700
C442        C  0.11745677  0.50196606  0.84916080     0.01900
C443        C  0.12004648  0.50024357  0.88360372     0.30000
C444        C  0.09836038  0.49934508  0.90385960    -0.19500
C445        C  0.07485403  0.99726422  0.89167937    -0.28900
C446        C  0.07195296  0.99571028  0.85704787     0.44100
C447        C  0.14071292  0.50210702  0.82756394     0.05200
O448        O  0.14381364  0.49890064  0.89785264    -0.57400
H449        H  0.10142705  0.49805653  0.93024466     0.18200
O450        O  0.04827365  0.99209238  0.84323060    -0.64100
H451        H  0.09090144  0.99614133  0.80972548     0.16600
C452        C  0.14384935  0.48335311  0.80243030     0.28900
C453        C  0.16667933  0.48229179  0.78412557    -0.25000
C454        C  0.18732148  0.49959350  0.79044512    -0.24300
C455        C  0.18269331  0.01946162  0.81115207     0.40300
C456        C  0.15997125  0.02012697  0.82999190    -0.26700
O457        O  0.12513212  0.46503177  0.79655887    -0.58600
H458        H  0.16737534  0.46787323  0.76470980     0.16000
O459        O  0.20036095  0.03913295  0.81527698    -0.60100
H460        H  0.15695463  0.03616596  0.84719095     0.14400
H461        H  0.04206180  0.00998500  0.83787727     0.46300
H462        H  0.11664029  0.47080206  0.77594078     0.41600
H463        H  0.19332926  0.05445772  0.80326786     0.45100
H464        H  0.14804494  0.47992701  0.89851485     0.36600
C465        C  0.99626359  0.10661095  0.83700419    -0.27700
C466        C  0.48622199  0.13314728  0.85063901     0.01900
C467        C  0.47381392  0.13428869  0.88142429     0.30000
C468        C  0.47235796  0.11184473  0.90122250    -0.19500
C469        C  0.48330240  0.08785645  0.89092688    -0.28900
C470        C  0.99521690  0.08445777  0.85767999     0.44100
C471        C  0.49070760  0.15740041  0.83135666     0.05200
O472        O  0.46346923  0.15741886  0.89264835    -0.57400
H473        H  0.46306279  0.11341973  0.92514113     0.18200
O474        O  0.00576514  0.06131498  0.84682760    -0.64100
H475        H  0.00544987  0.10502358  0.81302069     0.16600
C476        C  0.01546028  0.16742076  0.82980327     0.28900
C477        C  0.02022897  0.19022469  0.81160878    -0.25000
C478        C  0.50059788  0.20229822  0.79247541    -0.24300
C479        C  0.47723339  0.18861688  0.78924960     0.40300
C480        C  0.47244415  0.16627006  0.80862544    -0.26700
O481        O  0.03452994  0.15714550  0.84906306    -0.58600
H482        H  0.03898842  0.19924354  0.81316685     0.16000
O483        O  0.45941780  0.19623348  0.76638914    -0.60100
H484        H  0.45470470  0.15552976  0.80544460     0.14400
H485        H  0.02382337  0.06174924  0.85436003     0.46300
H486        H  0.03248079  0.16580733  0.87087460     0.41600
H487        H  0.46502360  0.18804382  0.74531358     0.45100
H488        H  0.47747460  0.16619693  0.90491713     0.36600
C489        C  0.99385302  0.31517547  0.83968028    -0.27700
C490        C  0.49411847  0.34047272  0.82520387     0.01900
C491        C  0.49873598  0.34264947  0.79093910     0.30000
C492        C  0.50245418  0.32008247  0.77161239    -0.19500
C493        C  0.50129413  0.29491933  0.78565980    -0.28900
C494        C  0.99790556  0.29262160  0.82031567     0.44100
C495        C  0.49154855  0.36439162  0.84659343     0.05200
O496        O  0.49983900  0.36678482  0.77605520    -0.57400
H497        H  0.50647055  0.32223963  0.74546646     0.18200
O498        O  0.00064228  0.26873033  0.83546944    -0.64100
H499        H  0.99325229  0.31315296  0.86628730     0.16600
C500        C  0.47099421  0.36718104  0.86910656     0.28900
C501        C  0.46946403  0.38935370  0.88970828    -0.25000
C502        C  0.48803437  0.40928557  0.88820125    -0.24300
C503        C  0.00400048  0.40797791  0.86267778     0.40300
C504        C  0.00526801  0.38592099  0.84174897    -0.26700
O505        O  0.45185691  0.34873287  0.87040745    -0.58600
H506        H  0.45368964  0.39094236  0.90711402     0.16000
O507        O  0.02082964  0.42831891  0.85790413    -0.60100
H508        H  0.01960864  0.38552078  0.82231952     0.14400
H509        H  0.01937570  0.26636133  0.83822629     0.46300
H510        H  0.45426242  0.33941686  0.89166680     0.41600
H511        H  0.03589795  0.42405442  0.87173467     0.45100
H512        H  0.48190941  0.37086452  0.76987563     0.36600
C513        C  0.39312906  0.26041567  0.62003941    -0.27700
C514        C  0.39103091  0.24835120  0.65096072     0.01900
C515        C  0.36692264  0.23898557  0.66148442     0.30000
C516        C  0.34569896  0.24028340  0.64015557    -0.19500
C517        C  0.34818026  0.25111547  0.60830612    -0.28900
C518        C  0.37199042  0.26229585  0.59910179     0.44100
C519        C  0.41447598  0.24546245  0.67133678     0.05200
O520        O  0.36404559  0.22807634  0.69221832    -0.57400
H521        H  0.32756647  0.23202608  0.64811903     0.18200
O522        O  0.37495102  0.27503934  0.56949091    -0.64100
H523        H  0.41137809  0.26839823  0.61203348     0.16600
C524        C  0.43441610  0.22862101  0.66113697     0.28900
C525        C  0.45766797  0.22815026  0.67841359    -0.25000
C526        C  0.46169716  0.24464471  0.70582477    -0.24300
C527        C  0.44149604  0.26127948  0.71620134     0.40300
C528        C  0.41809251  0.26140258  0.69918228    -0.26700
O529        O  0.43125204  0.21243153  0.63434348    -0.58600
H530        H  0.47267558  0.21494971  0.67015653     0.16000
O531        O  0.44471271  0.27843328  0.74197733    -0.60100
H532        H  0.40307093  0.27477883  0.70694510     0.14400
H533        H  0.36926217  0.29332032  0.57371923     0.46300
H534        H  0.43865321  0.22217216  0.61537469     0.41600
H535        H  0.45362886  0.29383530  0.73233850     0.45100
H536        H  0.36899305  0.20939286  0.68950415     0.36600
C537        C  0.15368542  0.25453690  0.66096156    -0.27700
C538        C  0.12908054  0.24966816  0.64824404     0.01900
C539        C  0.12652190  0.24425182  0.61438739     0.30000
C540        C  0.14805709  0.24411119  0.59373655    -0.19500
C541        C  0.17280953  0.24927231  0.60602164    -0.28900
C542        C  0.17542506  0.25452421  0.64015978     0.44100
C543        C  0.10597941  0.24982200  0.67003451     0.05200
O544        O  0.10293771  0.23885131  0.60117081    -0.57400
H545        H  0.14519923  0.23976575  0.56781333     0.18200
O546        O  0.19895799  0.25991912  0.65349174    -0.64100
H547        H  0.15598997  0.25874705  0.68701556     0.16600
C548        C  0.10333102  0.23176997  0.69597718     0.28900
C549        C  0.08043851  0.23057889  0.71426824    -0.25000
C550        C  0.05942657  0.24724662  0.70723149    -0.24300
C551        C  0.06279538  0.26610932  0.68190447     0.40300
C552        C  0.08564372  0.26703789  0.66344623    -0.26700
O553        O  0.12261250  0.21428676  0.70269356    -0.58600
H554        H  0.07989074  0.21659198  0.73414065     0.16000
O555        O  0.04357307  0.28345966  0.67444679    -0.60100
H556        H  0.08743063  0.28121800  0.64364942     0.14400
H557        H  0.20150395  0.27902826  0.65015684     0.46300
H558        H  0.13204774  0.22202089  0.72156029     0.41600
H559        H  0.04832639  0.30006963  0.68566536     0.45100
H560        H  0.10017896  0.21984725  0.60510688     0.36600
C561        C  0.24218071  0.13584420  0.65301101    -0.27700
C562        C  0.25732913  0.11351996  0.64658090     0.01900
C563        C  0.27413819  0.11389525  0.61920973     0.30000
C564        C  0.27516947  0.13595011  0.59855898    -0.19500
C565        C  0.25993700  0.15820272  0.60494418    -0.28900
C566        C  0.24353511  0.15809124  0.63264808     0.44100
C567        C  0.25462389  0.08971013  0.66778955     0.05200
O568        O  0.28952586  0.09273792  0.61226475    -0.57400
H569        H  0.28794002  0.13564294  0.57735912     0.18200
O570        O  0.22744840  0.17885706  0.63872163    -0.64100
H571        H  0.22866744  0.13577793  0.67340032     0.16600
C572        C  0.25603777  0.09149782  0.70251367     0.28900
C573        C  0.25142890  0.06927321  0.72210528    -0.25000
C574        C  0.24560295  0.04499079  0.70761043    -0.24300
C575        C  0.24497174  0.04288142  0.67301459     0.40300
C576        C  0.24931721  0.06514056  0.65335494    -0.26700
O577        O  0.26245836  0.11477515  0.71744336    -0.58600
H578        H  0.25214056  0.07104977  0.74876475     0.16000
O579        O  0.23860792  0.01953648  0.65826410    -0.60100
H580        H  0.24776241  0.06336801  0.62677159     0.14400
H581        H  0.23665235  0.19002717  0.65486217     0.46300
H582        H  0.24641292  0.12126813  0.72785114     0.41600
H583        H  0.25500678  0.00983945  0.65593422     0.45100
H584        H  0.30564487  0.09605133  0.62446100     0.36600
C585        C  0.23092547  0.41662749  0.67027221    -0.27700
C586        C  0.25551700  0.40561683  0.67098635     0.01900
C587        C  0.27493677  0.41848225  0.68885914     0.30000
C588        C  0.26939264  0.44161891  0.70652182    -0.19500
C589        C  0.24452070  0.45222060  0.70667622    -0.28900
C590        C  0.22539805  0.43977268  0.68754819     0.44100
C591        C  0.26065494  0.38126397  0.65181822     0.05200
O592        O  0.29924463  0.40828884  0.68975611    -0.57400
H593        H  0.28433162  0.45070054  0.72109152     0.18200
O594        O  0.20112665  0.44999962  0.68557989    -0.64100
H595        H  0.21595133  0.40730477  0.65597211     0.16600
C596        C  0.24824914  0.35747089  0.65963882     0.28900
C597        C  0.25091550  0.33554870  0.63876444    -0.25000
C598        C  0.26543130  0.33718453  0.60950851    -0.24300
C599        C  0.27893425  0.36067381  0.60275088     0.40300
C600        C  0.27646228  0.38238779  0.62379517    -0.26700
O601        O  0.23336786  0.35556007  0.68755597    -0.58600
H602        H  0.24056116  0.31770661  0.64462661     0.16000
O603        O  0.29405974  0.36293625  0.57507593    -0.60100
H604        H  0.28617896  0.40052129  0.61753539     0.14400
H605        H  0.20218700  0.46382613  0.66841117     0.46300
H606        H  0.21546840  0.35769864  0.67987902     0.41600
H607        H  0.31034081  0.35397145  0.58067766     0.45100
H608        H  0.29904310  0.39557076  0.70827467     0.36600
C609        C  0.35725723  0.11341834  0.50810025    -0.27700
C610        C  0.38320644  0.12031848  0.50775728     0.01900
C611        C  0.39020571  0.14677694  0.50431176     0.30000
C612        C  0.37127149  0.16605270  0.50118781    -0.19500
C613        C  0.34504755  0.15942639  0.50181184    -0.28900
C614        C  0.33820344  0.13263901  0.50527117     0.44100
C615        C  0.40291998  0.09969659  0.51039897     0.05200
O616        O  0.41555599  0.15386535  0.50305280    -0.57400
H617        H  0.37727042  0.18628425  0.49838719     0.18200
O618        O  0.31303542  0.12494800  0.50679227    -0.64100
H619        H  0.35175413  0.09301866  0.51081625     0.16600
C620        C  0.41738084  0.09679933  0.53941198     0.28900
C621        C  0.43679588  0.07787667  0.54081463    -0.25000
C622        C  0.44172334  0.06155998  0.51359415    -0.24300
C623        C  0.42688118  0.06405481  0.48487302     0.40300
C624        C  0.40759736  0.08308743  0.48339081    -0.26700
O625        O  0.41284049  0.11258481  0.56628734    -0.58600
H626        H  0.44818126  0.07604180  0.56300254     0.16000
O627        O  0.43183707  0.04869126  0.45773174    -0.60100
H628        H  0.39656142  0.08522722  0.46095110     0.14400
H629        H  0.30862175  0.11962695  0.48393772     0.46300
H630        H  0.40054073  0.10266540  0.58021903     0.41600
H631        H  0.42043074  0.03323529  0.46017565     0.45100
H632        H  0.41969896  0.16000963  0.52566427     0.36600
C633        C  0.15965158  0.11980055  0.49928703    -0.27700
C634        C  0.13459313  0.12810592  0.49296792     0.01900
C635        C  0.12940340  0.15492745  0.48891876     0.30000
C636        C  0.14928803  0.17317867  0.49100815    -0.19500
C637        C  0.17461238  0.16507150  0.49730234    -0.28900
C638        C  0.17956507  0.13800515  0.50191441     0.44100
C639        C  0.11372229  0.10874131  0.49298552     0.05200
O640        O  0.10490914  0.16346791  0.48306568    -0.57400
H641        H  0.14477935  0.19373402  0.48744129     0.18200
O642        O  0.20364257  0.12902679  0.50934558    -0.64100
H643        H  0.16364871  0.09914577  0.50307143     0.16600
C644        C  0.11217994  0.08930420  0.46836612     0.28900
C645        C  0.09277678  0.07041528  0.46996394    -0.25000
C646        C  0.07520794  0.07047513  0.49630652    -0.24300
C647        C  0.07692907  0.08977799  0.52102124     0.40300
C648        C  0.09591638  0.10900440  0.51900511    -0.26700
O649        O  0.12930280  0.08890566  0.44254033    -0.58600
H650        H  0.09164466  0.05543429  0.45098643     0.16000
O651        O  0.06043782  0.08962945  0.54750171    -0.60100
H652        H  0.09725359  0.12371080  0.53829338     0.14400
H653        H  0.20451557  0.12927409  0.53381001     0.46300
H654        H  0.14214048  0.07537030  0.44845386     0.41600
H655        H  0.06939932  0.07948606  0.56485505     0.45100
H656        H  0.10320213  0.16352205  0.45867981     0.36600
C657        C  0.10904787  0.40759858  0.51747187    -0.27700
C658        C  0.12207561  0.39832204  0.48940317     0.01900
C659        C  0.11471448  0.40711075  0.45785549     0.30000
C660        C  0.09440913  0.42492058  0.45478878    -0.19500
C661        C  0.08146606  0.43409834  0.48293403    -0.28900
C662        C  0.08884723  0.42536809  0.51437416     0.44100
C663        C  0.14241527  0.37846897  0.49340567     0.05200
O664        O  0.12645474  0.39744126  0.42996248    -0.57400
H665        H  0.08868327  0.43152372  0.43049019     0.18200
O666        O  0.07674374  0.43459508  0.54220628    -0.64100
H667        H  0.11458118  0.40099416  0.54184730     0.16600
C668        C  0.16755065  0.38299672  0.48204280     0.28900
C669        C  0.18607176  0.36333421  0.48498850    -0.25000
C670        C  0.17994034  0.33908468  0.49952476    -0.24300
C671        C  0.15503859  0.33510784  0.51232997     0.40300
C672        C  0.13650620  0.35468688  0.50904943    -0.26700
O673        O  0.17417841  0.40651442  0.46795775    -0.58600
H674        H  0.20513880  0.36691007  0.47525742     0.16000
O675        O  0.14853442  0.31217591  0.52800174    -0.60100
H676        H  0.11730918  0.35116934  0.51838160     0.14400
H677        H  0.06158685  0.42307294  0.54518738     0.46300
H678        H  0.17923412  0.41794040  0.48668220     0.41600
H679        H  0.15387012  0.31464527  0.55127915     0.45100
H680        H  0.13697811  0.41211672  0.42126764     0.36600
C681        C  0.36449767  0.37948149  0.49566658    -0.27700
C682        C  0.39003643  0.37102445  0.49480454     0.01900
C683        C  0.39549105  0.34405468  0.49603511     0.30000
C684        C  0.37551677  0.32586950  0.49803388    -0.19500
C685        C  0.34974766  0.33410847  0.49860203    -0.28900
C686        C  0.34440564  0.36136630  0.49742765     0.44100
C687        C  0.41090074  0.39048904  0.49247517     0.05200
O688        O  0.42032924  0.33525917  0.49491679    -0.57400
H689        H  0.38035255  0.30520300  0.49883183     0.18200
O690        O  0.31973500  0.37068102  0.49825841    -0.64100
H691        H  0.36011789  0.40027264  0.49504033     0.16600
C692        C  0.41248619  0.40768162  0.46537653     0.28900
C693        C  0.43227572  0.42610004  0.46370050    -0.25000
C694        C  0.45049756  0.42772082  0.48892431    -0.24300
C695        C  0.44898556  0.41056117  0.51601960     0.40300
C696        C  0.42932108  0.39194603  0.51757439    -0.26700
O697        O  0.39522253  0.40605521  0.44000358    -0.58600
H698        H  0.43329686  0.43937421  0.44284534     0.16000
O699        O  0.46642413  0.41209493  0.54118372    -0.60100
H700        H  0.42817070  0.37889534  0.53863669     0.14400
H701        H  0.31481541  0.37286362  0.47478212     0.46300
H702        H  0.38303210  0.42071371  0.44374367     0.41600
H703        H  0.45915883  0.42508085  0.55692985     0.45100
H704        H  0.42438760  0.33328288  0.47108370     0.36600
C705        C  0.10658520  0.25127962  0.29678068    -0.27700
C706        C  0.10662369  0.25002295  0.33138796     0.01900
C707        C  0.08299734  0.24739637  0.34803137     0.30000
C708        C  0.05992677  0.24702998  0.33040667    -0.19500
C709        C  0.05953519  0.24902706  0.29561051    -0.28900
C710        C  0.08351210  0.25047451  0.27898297     0.44100
C711        C  0.13108775  0.25219724  0.35027352     0.05200
O712        O  0.08220504  0.24493965  0.38176703    -0.57400
H713        H  0.04263479  0.24456901  0.34466673     0.18200
O714        O  0.08461018  0.25170532  0.24515945    -0.64100
H715        H  0.12451276  0.25329445  0.28342112     0.16600
C716        C  0.15207198  0.23527695  0.34434940     0.28900
C717        C  0.17406269  0.23675327  0.36432236    -0.25000
C718        C  0.17542017  0.25483580  0.39050505    -0.24300
C719        C  0.15485809  0.27240351  0.39549846     0.40300
C720        C  0.13308181  0.27105212  0.37548654    -0.26700
O721        O  0.15053391  0.21602845  0.32071647    -0.58600
H722        H  0.18951378  0.22286049  0.36038538     0.16000
O723        O  0.15560883  0.29064771  0.42045235    -0.60100
H724        H  0.11742187  0.28457376  0.38006754     0.14400
H725        H  0.08823625  0.23349898  0.23777437     0.46300
H726        H  0.16104136  0.22247918  0.30193342     0.41600
H727        H  0.16347595  0.30648292  0.41042814     0.45100
H728        H  0.08435708  0.22590616  0.38605060     0.36600
C729        C  0.36810374  0.24718769  0.33426877    -0.27700
C730        C  0.39329526  0.24739503  0.34644435     0.01900
C731        C  0.39695945  0.24568419  0.38083012     0.30000
C732        C  0.37591678  0.24505134  0.40235224    -0.19500
C733        C  0.35054142  0.24578092  0.39054072    -0.28900
C734        C  0.34686896  0.24619572  0.35589701     0.44100
C735        C  0.41588717  0.25014942  0.32385199     0.05200
O736        O  0.42118889  0.24486265  0.39382326    -0.57400
H737        H  0.37970595  0.24425421  0.42861152     0.18200
O738        O  0.32270285  0.24628961  0.34276426    -0.64100
H739        H  0.36482450  0.24842296  0.30792514     0.16600
C740        C  0.42052243  0.23253486  0.29753060     0.28900
C741        C  0.44400361  0.23330890  0.28024822    -0.25000
C742        C  0.46297222  0.25168215  0.28862522    -0.24300
C743        C  0.45728886  0.27079284  0.31283247     0.40300
C744        C  0.43408253  0.26980981  0.33027733    -0.26700
O745        O  0.40306827  0.21333441  0.29006840    -0.58600
H746        H  0.44787811  0.21868560  0.26140805     0.16000
O747        O  0.47453632  0.29024902  0.32014927    -0.60100
H748        H  0.43053046  0.28414090  0.34957972     0.14400
H749        H  0.31824992  0.22751542  0.33971525     0.46300
H750        H  0.39366878  0.22001909  0.27058817     0.41600
H751        H  0.47008857  0.30500420  0.30530292     0.45100
H752        H  0.42639464  0.22616006  0.39255695     0.36600
C753        C  0.25756221  0.36115801  0.33870017    -0.27700
C754        C  0.25636539  0.38652797  0.35233884     0.01900
C755        C  0.25817910  0.38948006  0.38669923     0.30000
C756        C  0.26072172  0.36740643  0.40698559    -0.19500
C757        C  0.26137960  0.34168793  0.39378687    -0.28900
C758        C  0.26000549  0.33885802  0.35904832     0.44100
C759        C  0.25186962  0.40985764  0.33104654     0.05200
O760        O  0.25694470  0.41395949  0.40080184    -0.57400
H761        H  0.26176271  0.37064346  0.43339145     0.18200
O762        O  0.26024466  0.31448071  0.34466133    -0.64100
H763        H  0.25603406  0.35860042  0.31221089     0.16600
C764        C  0.27141694  0.42043513  0.31103062     0.28900
C765        C  0.26660494  0.44268729  0.29147610    -0.25000
C766        C  0.24231796  0.45466720  0.29125605    -0.24300
C767        C  0.22311913  0.44458689  0.31253791     0.40300
C768        C  0.22793581  0.42236033  0.33193048    -0.26700
O769        O  0.29544178  0.40952188  0.31098459    -0.58600
H770        H  0.28174239  0.45006505  0.27584697     0.16000
O771        O  0.19956464  0.45642083  0.31489520    -0.60100
H772        H  0.21288709  0.41483483  0.34784018     0.14400
H773        H  0.27858401  0.31061490  0.34032310     0.46300
H774        H  0.29502196  0.39583132  0.29354256     0.41600
H775        H  0.20208903  0.47157598  0.32993838     0.45100
H776        H  0.27501114  0.41980194  0.40267544     0.36600
C777        C  0.24664093  0.09550484  0.29184875    -0.27700
C778        C  0.25338208  0.09285152  0.32519178     0.01900
C779        C  0.25800164  0.06731676  0.33766792     0.30000
C780        C  0.25418890  0.04512614  0.31757726    -0.19500
C781        C  0.24621859  0.04796986  0.28479364    -0.28900
C782        C  0.24364962  0.07346435  0.27161359     0.44100
C783        C  0.25414732  0.11658110  0.34701306     0.05200
O784        O  0.26572189  0.06378004  0.36968036    -0.57400
H785        H  0.25651804  0.02569293  0.32798507     0.18200
O786        O  0.23743571  0.07704733  0.23903879    -0.64100
H787        H  0.24283366  0.11469986  0.28155184     0.16600
C788        C  0.26653175  0.14006963  0.33733801     0.28900
C789        C  0.26702471  0.16186136  0.35877399    -0.25000
C790        C  0.25542544  0.16067508  0.39009275    -0.24300
C791        C  0.24216822  0.13751047  0.39911487     0.40300
C792        C  0.24156260  0.11594788  0.37771284    -0.26700
O793        O  0.27952888  0.14139789  0.30784797    -0.58600
H794        H  0.27737166  0.17933856  0.35135881     0.16000
O795        O  0.22982483  0.13555441  0.42903147    -0.60100
H796        H  0.23106594  0.09858887  0.38522386     0.14400
H797        H  0.25396019  0.07605188  0.22689218     0.46300
H798        H  0.26951537  0.15366002  0.29393921     0.41600
H799        H  0.21252155  0.14305027  0.42539553     0.45100
H800        H  0.28468773  0.06485999  0.36891649     0.36600
O801        O  0.26126913  0.70511421  0.40425893    -0.86600
O802        O  0.25980571  0.70489369  0.59345871    -0.86700
O803        O  0.29996096  0.67271538  0.49699534    -0.88400
O804        O  0.21751145  0.67660400  0.49785652    -0.87100
O805        O  0.18753535  0.70931733  0.49733619    -0.86700
O806        O  0.33184954  0.70344382  0.49678002    -0.88100
O807        O  0.25984635  0.67404412  0.55197283    -0.86600
O808        O  0.25981288  0.67453139  0.44587904    -0.86200
Zr809      Zr  0.25975723  0.69650629  0.49886863     2.84300
O810        O  0.23463894  0.72313085  0.53302437    -1.08100
O811        O  0.28585755  0.72179831  0.46431350    -1.08900
C812        C  0.26027997  0.68113109  0.41515311     1.06600
C813        C  0.25971835  0.68089236  0.58271931     1.06500
C814        C  0.32374375  0.67949181  0.49628894     1.09500
C815        C  0.19418221  0.68492131  0.49695185     1.07300
H816        H  0.29711683  0.71003122  0.54608564     0.32800
O817        O  0.28652624  0.72138824  0.53277987    -1.29100
H818        H  0.22397288  0.71279752  0.45107065     0.32500
O819        O  0.23509777  0.72343722  0.46459086    -1.30800
O820        O  0.26330492  0.79167963  0.59400331    -0.86600
O821        O  0.26025590  0.79402089  0.40525176    -0.88000
O822        O  0.33345662  0.74856837  0.55121885    -0.86600
O823        O  0.18914999  0.75050994  0.55198967    -0.86700
O824        O  0.18911258  0.75269601  0.44547144    -0.86400
O825        O  0.33315663  0.74553453  0.44414381    -0.86200
O826        O  0.30650271  0.82077484  0.49761267    -0.86600
O827        O  0.22295535  0.82429662  0.50098433    -0.86000
O828        O  0.33618669  0.78778773  0.49647580    -0.87100
O829        O  0.19112585  0.79350415  0.49939820    -0.86200
O830        O  0.30386634  0.74919430  0.59333948    -0.86600
O831        O  0.30326962  0.74809840  0.40299698    -0.86400
O832        O  0.21891139  0.74955919  0.40367520    -0.86000
O833        O  0.21852033  0.74959239  0.59383562    -0.86400
O834        O  0.26685120  0.82260576  0.55298998    -0.86700
O835        O  0.26225432  0.82425196  0.44717972    -0.88100
Zr836      Zr  0.26130154  0.74845139  0.56717038     2.83100
Zr837      Zr  0.26125216  0.74928575  0.43020074     2.83500
Zr838      Zr  0.31241978  0.74682740  0.49797387     2.84100
Zr839      Zr  0.21067118  0.75059582  0.49877686     2.83400
Zr840      Zr  0.26375653  0.80121289  0.49942181     2.84200
O841        O  0.23697360  0.77638754  0.46526988    -1.08600
O842        O  0.28806736  0.77369224  0.53275177    -1.08100
C843        C  0.26591934  0.81557675  0.58360306     1.06500
C844        C  0.26068768  0.81805065  0.41633313     1.09100
C845        C  0.32718874  0.74964882  0.58206885     1.06700
C846        C  0.19516992  0.75009216  0.58287550     1.07100
C847        C  0.19561298  0.75156909  0.41464383     1.06600
C848        C  0.32662628  0.74647999  0.41342497     1.06200
C849        C  0.32983313  0.81227301  0.49646892     1.06600
C850        C  0.19914720  0.81737269  0.50051663     1.06100
H851        H  0.29915292  0.78519805  0.45070799     0.32800
O852        O  0.28810526  0.77446327  0.46433840    -1.29700
H853        H  0.22641287  0.78736009  0.54688341     0.32800
O854        O  0.23681158  0.77598638  0.53318081    -1.31100
N855        N  0.05136576  0.50051778  0.47401716    -0.36700
N856        N  0.50975541  0.53968222  0.48228726    -0.57200
N857        N  0.47363793  0.49673186  0.48373423    -0.36700
N858        N  0.51498461  0.95809665  0.51063238    -0.57200
C859        C  0.06443458  0.52282815  0.48061416     0.26900
C860        C  0.06718611  0.98153366  0.51095114     0.26900
C861        C  0.45845881  0.51719157  0.49207527     0.26900
C862        C  0.46058643  0.97325633  0.51581636     0.26900
C863        C  0.03038271  0.55492747  0.46658305     0.35500
C864        C  0.48800185  0.55310083  0.47643316     0.35500
C865        C  0.03710678  0.94474016  0.50026703     0.35500
C866        C  0.49555592  0.94202459  0.50223084     0.35500
C867        C  0.08819901  0.51660719  0.49370735    -0.22000
C868        C  0.09045451  0.99144966  0.52174132    -0.22000
C869        C  0.43640385  0.50812617  0.50753415    -0.22000
C870        C  0.43614290  0.97894053  0.52739626    -0.22000
C871        C  0.02176380  0.57925044  0.45604603    -0.23000
C872        C  0.49364511  0.57834540  0.46588740    -0.23000
C873        C  0.03178723  0.91924812  0.49041980    -0.23000
C874        C  0.50500253  0.91836984  0.49034209    -0.23000
C875        C  0.05608282  0.54859687  0.47347897    -0.17800
C876        C  0.06178178  0.95467045  0.50659847    -0.18400
C877        C  0.46947883  0.94791262  0.50733448    -0.18400
C878        C  0.46335374  0.54365512  0.48421505    -0.18400
H879        H  0.10310508  0.53001757  0.50142887     0.14500
H880        H  0.10700846  0.98045998  0.52991201     0.14500
H881        H  0.42048662  0.51965487  0.51681187     0.14500
H882        H  0.42097553  0.96513931  0.53303669     0.14500
H883        H  0.03320527  0.59623082  0.44963249     0.12800
H884        H  0.48025616  0.59385859  0.45998986     0.12800
H885        H  0.04532771  0.90362100  0.48540847     0.12800
H886        H  0.49414362  0.90149190  0.48214706     0.12800
H887        H  0.03432367  0.49910422  0.46093126     0.26100
H888        H  0.48975454  0.49755811  0.46853783     0.26100
O889        O  0.48642452  0.95407545  0.90273101    -0.86600
O890        O  0.48538327  0.95245243  0.09184331    -0.86700
O891        O  0.02644756  0.92254526  0.99985805    -0.88400
O892        O  0.44381789  0.92326318  0.99757096    -0.87100
O893        O  0.41286023  0.95501727  0.99674922    -0.86700
O894        O  0.05745215  0.95420270  0.00054501    -0.88100
O895        O  0.48423538  0.92191472  0.05001674    -0.86600
O896        O  0.48513829  0.92297929  0.94380237    -0.86200
Zr897      Zr  0.48537945  0.94484020  0.99717474     2.84300
O898        O  0.45946998  0.97086892  0.03124505    -1.08100
O899        O  0.01141240  0.97026476  0.96416466    -1.08900
C900        C  0.48576784  0.92998536  0.91317026     1.06600
C901        C  0.48472933  0.92843712  0.08088467     1.06500
C902        C  0.05003551  0.93004820  0.00105090     1.09500
C903        C  0.42021189  0.93080914  0.99730875     1.07300
H904        H  0.02126850  0.95935888  0.04624725     0.32800
O905        O  0.01066630  0.97046633  0.03267793    -1.29100
H906        H  0.44902758  0.96036358  0.94943967     0.32500
O907        O  0.45985161  0.97122069  0.96312879    -1.30800
O908        O  0.48719668  0.54030890  0.09421352    -0.86600
O909        O  0.48563210  0.54332997  0.90510415    -0.88000
O910        O  0.05716916  0.99724145  0.05184927    -0.86600
O911        O  0.41221326  0.99559883  0.05045110    -0.86700
O912        O  0.41324662  0.00025161  0.94379584    -0.86400
O913        O  0.05864580  0.99600066  0.94618455    -0.86200
O914        O  0.02627540  0.57199874  0.00013494    -0.86600
O915        O  0.44353720  0.57153687  0.00307973    -0.86000
O916        O  0.05723530  0.54021739  0.99933085    -0.87100
O917        O  0.41289891  0.53952074  0.00178108    -0.86200
O918        O  0.02744502  0.99683662  0.09364723    -0.86600
O919        O  0.02776233  0.49912591  0.90322857    -0.86400
O920        O  0.44310377  0.49957563  0.90334522    -0.86000
O921        O  0.44178031  0.99583788  0.09225353    -0.86400
O922        O  0.48786892  0.57144912  0.05324994    -0.86700
O923        O  0.48462596  0.57332652  0.94748897    -0.88100
Zr924      Zr  0.48479837  0.99677447  0.06641323     2.83100
Zr925      Zr  0.48582363  0.99782430  0.92922940     2.83500
Zr926      Zr  0.03635953  0.99659336  0.99867278     2.84100
Zr927      Zr  0.43421329  0.99744174  0.99741334     2.83400
Zr928      Zr  0.48532623  0.55020411  0.99973953     2.84200
O929        O  0.45996813  0.52459538  0.96479469    -1.08600
O930        O  0.01080719  0.52351991  0.03341697    -1.08100
C931        C  0.48830786  0.56443844  0.08385356     1.06500
C932        C  0.48504920  0.56719291  0.91654233     1.09100
C933        C  0.05083872  0.99709768  0.08267218     1.06700
C934        C  0.41842820  0.99521425  0.08130831     1.07100
C935        C  0.41968448  0.50015709  0.91437715     1.06600
C936        C  0.05110285  0.49898883  0.91420854     1.06200
C937        C  0.04989935  0.56439704  0.99984068     1.06600
C938        C  0.41998943  0.56373773  0.00370208     1.06100
H939        H  0.02118071  0.53599958  0.95173578     0.32800
O940        O  0.01051450  0.52463718  0.96499603    -1.29700
H941        H  0.44924034  0.53418740  0.04753182     0.32800
O942        O  0.46000452  0.52344482  0.03346167    -1.31100
N943        N  0.27430130  0.74745536  0.02959163    -0.36700
N944        N  0.23555037  0.78766168  0.02458969    -0.57200
N945        N  0.19610599  0.74772355  0.02125219    -0.36700
N946        N  0.23464194  0.70753665  0.02418777    -0.57200
C947        C  0.28875926  0.76849877  0.02124915     0.26900
C948        C  0.28823776  0.72580214  0.02236046     0.26900
C949        C  0.18279522  0.76925829  0.01234185     0.26900
C950        C  0.18250255  0.72663735  0.01114424     0.26900
C951        C  0.25607175  0.80300241  0.03063595     0.35500
C952        C  0.21471095  0.80306391  0.02826688     0.35500
C953        C  0.25466449  0.69244970  0.03305964     0.35500
C954        C  0.21352013  0.69249491  0.02761970     0.35500
C955        C  0.31226006  0.76012569  0.00904462    -0.22000
C956        C  0.31192249  0.73315557  0.00971101    -0.22000
C957        C  0.16034327  0.76182919  0.99665874    -0.22000
C958        C  0.16022385  0.73485746  0.99575845    -0.22000
C959        C  0.24829191  0.82829739  0.03835904    -0.23000
C960        C  0.22197393  0.82831821  0.03698412    -0.23000
C961        C  0.24622606  0.66777230  0.04259539    -0.23000
C962        C  0.22005395  0.66777331  0.03900078    -0.23000
C963        C  0.28162069  0.79504572  0.02545236    -0.18400
C964        C  0.28047032  0.69963526  0.02818438    -0.18400
C965        C  0.18885468  0.70026301  0.01770652    -0.18400
C966        C  0.18964345  0.79532028  0.01995714    -0.18400
H967        H  0.32801732  0.77218433  0.00048258     0.14500
H968        H  0.32736090  0.72042646  0.00168679     0.14500
H969        H  0.14547715  0.77450710  0.98711745     0.14500
H970        H  0.14523423  0.72268756  0.98548057     0.14500
H971        H  0.26034682  0.84509633  0.04347687     0.12800
H972        H  0.20966812  0.84518958  0.04069942     0.12800
H973        H  0.25781582  0.65124117  0.05017604     0.12800
H974        H  0.20737430  0.65133073  0.04346926     0.12800
H975        H  0.25697375  0.74779534  0.04242356     0.26100
H976        H  0.21187998  0.74748825  0.03685351     0.26100
C977        C  0.03393709  0.74764105  0.27369064     0.86400
C978        C  0.03073564  0.72201092  0.25417774    -0.53800
C979        C  0.50936585  0.72165807  0.23566050     0.09300
C980        C  0.49234015  0.74642729  0.23841799     0.20300
C981        C  0.03210672  0.76957432  0.24760778    -0.54500
C982        C  0.50989261  0.77007097  0.23013485     0.09400
C983        C  0.50848609  0.75027934  0.29448095    -0.54100
C984        C  0.48689349  0.74947181  0.27557947     0.10000
H985        H  0.04474684  0.70628135  0.25513664     0.14500
H986        H  0.47476263  0.74509778  0.22328183     0.00300
H987        H  0.04629234  0.78509637  0.24586182     0.14800
H988        H  0.50698489  0.75241186  0.32096388     0.14600
C989        C  0.20991154  0.00094119  0.22725258     0.86400
C990        C  0.21284141  0.97760337  0.25092285    -0.53800
C991        C  0.23575311  0.97663719  0.26701008     0.09300
C992        C  0.25380621  0.99982230  0.25865282     0.20300
C993        C  0.21652588  0.52484521  0.24800463    -0.54500
C994        C  0.23926756  0.52455037  0.26450922     0.09400
C995        C  0.23365271  0.99961496  0.20452733    -0.54100
C996        C  0.25670099  0.99930435  0.22068072     0.10000
H997        H  0.19809872  0.96280325  0.25441283     0.14500
H998        H  0.27226652  0.99948987  0.27216388     0.00300
H999        H  0.20355165  0.54121228  0.25100888     0.14800
H1000       H  0.23215415  0.99890925  0.17780523     0.14600
C1001       C  0.03372429  0.74544655  0.72667329     0.86400
C1002       C  0.02998108  0.77016665  0.74799397    -0.53800
C1003       C  0.50704674  0.77241512  0.76302764     0.09300
C1004       C  0.49049759  0.74764106  0.75832142     0.20300
C1005       C  0.02962284  0.72251533  0.75105697    -0.54500
C1006       C  0.50789053  0.72457579  0.76826491     0.09400
C1007       C  0.51056227  0.74402322  0.70403573    -0.54100
C1008       C  0.48755841  0.74501871  0.72053559     0.10000
H1009       H  0.04416227  0.78570918  0.74971832     0.14500
H1010       H  0.47214104  0.74810003  0.77227387     0.00300
H1011       H  0.04287496  0.70652544  0.75488176     0.14800
H1012       H  0.51191252  0.74253840  0.67732106     0.14600
C1013       C  0.21277842  0.99776201  0.76862999     0.86400
C1014       C  0.21611828  0.52258812  0.74830092    -0.53800
C1015       C  0.23839984  0.52282627  0.73052605     0.09300
C1016       C  0.25575806  0.99837665  0.73462664     0.20300
C1017       C  0.21645610  0.97419948  0.74511227    -0.54500
C1018       C  0.23853727  0.97453361  0.72695291     0.09400
C1019       C  0.23715777  0.99719083  0.78999615    -0.54100
C1020       C  0.25979548  0.99757491  0.77246687     0.10000
H1021       H  0.20225638  0.53847299  0.74712889     0.14500
H1022       H  0.27372068  0.99869104  0.71987343     0.00300
H1023       H  0.20388954  0.95746240  0.74382130     0.14800
H1024       H  0.23645084  0.99686468  0.81680021     0.14600
C1025       C  0.09104766  0.00005193  0.16167341    -0.27700
C1026       C  0.11594869  0.99845427  0.14842842     0.01900
C1027       C  0.12103439  0.49941844  0.11176679     0.30000
C1028       C  0.09948244  0.49932493  0.09142632    -0.19500
C1029       C  0.07269628  0.99721981  0.10635773    -0.28900
C1030       C  0.06947030  0.99926937  0.14097472     0.44100
C1031       C  0.13872968  0.99890765  0.17014001     0.05200
O1032       O  0.14498870  0.50083376  0.09774310    -0.57400
H1033       H  0.10265968  0.50019135  0.06499303     0.18200
O1034       O  0.04550621  0.00098882  0.15486770    -0.64100
H1035       H  0.08834782  0.00168741  0.18814907     0.16600
C1036       C  0.14760672  0.52124253  0.18533703     0.28900
C1037       C  0.17001392  0.52186882  0.20424302    -0.25000
C1038       C  0.18460995  0.00047376  0.20778363    -0.24300
C1039       C  0.17835720  0.97821686  0.18842784     0.40300
C1040       C  0.15571460  0.97760730  0.16995730    -0.26700
O1041       O  0.13252623  0.54325869  0.18358113    -0.58600
H1042       H  0.17423690  0.54015985  0.21633232     0.16000
O1043       O  0.19474401  0.95718482  0.18656686    -0.60100
H1044       H  0.15152205  0.96045832  0.15505712     0.14400
H1045       H  0.04094040  0.98274123  0.16104579     0.46300
H1046       H  0.13978644  0.55371201  0.16513419     0.41600
H1047       H  0.18637893  0.94303946  0.19951254     0.45100
H1048       H  0.14855541  0.51986347  0.09540515     0.36600
C1049       C  0.31072802  0.51410134  0.15777850    -0.27700
C1050       C  0.32918523  0.99703579  0.16797570     0.01900
C1051       C  0.32597915  0.98315719  0.19776971     0.30000
C1052       C  0.30254837  0.98444658  0.21505834    -0.19500
C1053       C  0.28198193  0.99947678  0.20304326    -0.28900
C1054       C  0.28737947  0.51486464  0.17491612     0.44100
C1055       C  0.35278624  0.99442117  0.14736682     0.05200
O1056       O  0.34537750  0.96776525  0.20974217    -0.57400
H1057       H  0.30026914  0.97303595  0.23740957     0.18200
O1058       O  0.26833000  0.53097023  0.16348077    -0.64100
H1059       H  0.31292763  0.52562866  0.13546659     0.16600
C1060       C  0.35117344  0.98437942  0.11505256     0.28900
C1061       C  0.37276951  0.98424110  0.09443284    -0.25000
C1062       C  0.39659206  0.99389948  0.10533888    -0.24300
C1063       C  0.40035611  0.50297502  0.13945415     0.40300
C1064       C  0.37852755  0.50380430  0.15999378    -0.26700
O1065       O  0.32834957  0.97504154  0.10312274    -0.58600
H1066       H  0.37071243  0.97668675  0.06954795     0.16000
O1067       O  0.42325825  0.51201213  0.15142012    -0.60100
H1068       H  0.38025035  0.51126706  0.18495884     0.14400
H1069       H  0.27076203  0.54786054  0.17526493     0.46300
H1070       H  0.32698696  0.95684843  0.11163049     0.41600
H1071       H  0.43141285  0.49655655  0.16189653     0.45100
H1072       H  0.34203077  0.94996521  0.20078618     0.36600
C1073       C  0.00082455  0.88434448  0.15503754    -0.27700
C1074       C  0.48906157  0.86069690  0.14560424     0.01900
C1075       C  0.47284895  0.86065900  0.11783994     0.30000
C1076       C  0.47109875  0.88304604  0.09766580    -0.19500
C1077       C  0.48479560  0.90618040  0.10500066    -0.28900
C1078       C  0.99822294  0.90712127  0.13563681     0.44100
C1079       C  0.49384163  0.83627072  0.16530462     0.05200
O1080       O  0.45913545  0.83864734  0.10963118    -0.57400
H1081       H  0.45917218  0.88219051  0.07585397     0.18200
O1082       O  0.01101254  0.92947678  0.14475156    -0.64100
H1083       H  0.01253128  0.88512741  0.17704303     0.16600
C1084       C  0.01910817  0.82637693  0.16880780     0.28900
C1085       C  0.02386315  0.80399976  0.18806089    -0.25000
C1086       C  0.50356135  0.79165480  0.20604774    -0.24300
C1087       C  0.47818390  0.80063336  0.20075522     0.40300
C1088       C  0.47354913  0.82254898  0.18039247    -0.26700
O1089       O  0.03913205  0.83828071  0.15266689    -0.58600
H1090       H  0.04341459  0.79706754  0.19004529     0.16000
O1091       O  0.45774254  0.78898707  0.21625559    -0.60100
H1092       H  0.45405298  0.82942511  0.17735614     0.14400
H1093       H  0.99967606  0.93819068  0.16116524     0.46300
H1094       H  0.04788151  0.84898527  0.16971079     0.41600
H1095       H  0.45633378  0.79787258  0.23801652     0.45100
H1096       H  0.47099427  0.82780469  0.09608829     0.36600
C1097       C  0.47984460  0.60824663  0.16015399    -0.27700
C1098       C  0.49279267  0.63119835  0.15016571     0.01900
C1099       C  0.00374659  0.62978848  0.12217238     0.30000
C1100       C  0.00266241  0.60807528  0.10098821    -0.19500
C1101       C  0.49057683  0.58642805  0.10809761    -0.28900
C1102       C  0.47863433  0.58603676  0.13942296     0.44100
C1103       C  0.49462125  0.65431663  0.17285541     0.05200
O1104       O  0.01879740  0.65084159  0.11366305    -0.57400
H1105       H  0.01312727  0.60887249  0.07781414     0.18200
O1106       O  0.46535071  0.56432792  0.14982618    -0.64100
H1107       H  0.47041223  0.60764090  0.18403951     0.16600
C1108       C  0.48790075  0.67991701  0.16264245     0.28900
C1109       C  0.49227814  0.70153968  0.18348108    -0.25000
C1110       C  0.50301609  0.69818511  0.21494581    -0.24300
C1111       C  0.00665192  0.67108631  0.22753735     0.40300
C1112       C  0.00197541  0.64926954  0.20722577    -0.26700
O1113       O  0.47722715  0.68408315  0.13221659    -0.58600
H1114       H  0.48786040  0.72105538  0.17458014     0.16000
O1115       O  0.01592496  0.66692056  0.25872583    -0.60100
H1116       H  0.00679950  0.62983312  0.21608125     0.14400
H1117       H  0.44775455  0.56664070  0.14114088     0.46300
H1118       H  0.45848513  0.68243412  0.13575662     0.41600
H1119       H  0.00064259  0.66734900  0.27339318     0.45100
H1120       H  0.00991352  0.65942165  0.09495728     0.36600
C1121       C  0.14673072  0.84819312  0.98562805    -0.27700
C1122       C  0.13015325  0.85253751  0.01245633     0.01900
C1123       C  0.13343225  0.83838254  0.04190871     0.30000
C1124       C  0.15310673  0.81990231  0.04420786    -0.19500
C1125       C  0.16964516  0.81560373  0.01740573    -0.28900
C1126       C  0.16639053  0.82970891  0.98793660     0.44100
C1127       C  0.10969606  0.87219778  0.00961259     0.05200
O1128       O  0.11753740  0.84257840  0.06848490    -0.57400
H1129       H  0.15549339  0.80888258  0.06685590     0.18200
O1130       O  0.18230819  0.82547667  0.96138968    -0.64100
H1131       H  0.14425770  0.85902495  0.96285068     0.16600
C1132       C  0.11575252  0.89889938  0.00670336     0.28900
C1133       C  0.09617318  0.91739779  0.00389104    -0.25000
C1134       C  0.07024984  0.90965445  0.00369725    -0.24300
C1135       C  0.06432211  0.88264445  0.00684042     0.40300
C1136       C  0.08403792  0.86421936  0.00986431    -0.26700
O1137       O  0.14076393  0.90714385  0.00782109    -0.58600
H1138       H  0.10145471  0.93790119  0.00195313     0.16000
O1139       O  0.03943574  0.87399075  0.00783516    -0.60100
H1140       H  0.07930291  0.84359456  0.01229612     0.14400
H1141       H  0.17442504  0.81075073  0.94901773     0.46300
H1142       H  0.14608108  0.90919179  0.98441159     0.41600
H1143       H  0.03563411  0.86809989  0.98501320     0.45100
H1144       H  0.12680971  0.85521417  0.08275239     0.36600
C1145       C  0.38623254  0.86455909  0.00147087    -0.27700
C1146       C  0.36061097  0.87244851  0.00426911     0.01900
C1147       C  0.35448492  0.89925988  0.00306562     0.30000
C1148       C  0.37401096  0.91793372  0.00042885    -0.19500
C1149       C  0.39992171  0.91029296  0.99828436    -0.28900
C1150       C  0.40583375  0.88314790  0.99818241     0.44100
C1151       C  0.34041569  0.85260317  0.00944779     0.05200
O1152       O  0.32951382  0.90742053  0.00596856    -0.57400
H1153       H  0.36872203  0.93849725  0.00050614     0.18200
O1154       O  0.43057237  0.87443549  0.99456447    -0.64100
H1155       H  0.39104591  0.84386503  0.00190963     0.16600
C1156       C  0.32183359  0.84781185  0.98511803     0.28900
C1157       C  0.30241440  0.82946688  0.99097318    -0.25000
C1158       C  0.30150051  0.81550151  0.02078368    -0.24300
C1159       C  0.32023889  0.82005356  0.04496697     0.40300
C1160       C  0.33954534  0.83858932  0.03923653    -0.26700
O1161       O  0.32266243  0.86079101  0.95547894    -0.58600
H1162       H  0.28825427  0.82576812  0.97203751     0.16000
O1163       O  0.31951171  0.80680598  0.07441431    -0.60100
H1164       H  0.35376344  0.84219892  0.05813043     0.14400
H1165       H  0.43670019  0.87113084  0.01734028     0.46300
H1166       H  0.33450091  0.85038072  0.94139669     0.41600
H1167       H  0.33090771  0.79141627  0.07120691     0.45100
H1168       H  0.32409106  0.91174669  0.98317426     0.36600
C1169       C  0.38515985  0.62909123  0.01431935    -0.27700
C1170       C  0.35958654  0.62084288  0.01664048     0.01900
C1171       C  0.35394537  0.59389293  0.01462673     0.30000
C1172       C  0.37367964  0.57570982  0.00979340    -0.19500
C1173       C  0.39945773  0.58381982  0.00760416    -0.28900
C1174       C  0.40502018  0.61092902  0.01019268     0.44100
C1175       C  0.33893372  0.64054270  0.02061275     0.05200
O1176       O  0.32921289  0.58507172  0.01782039    -0.57400
H1177       H  0.36867231  0.55510885  0.00828763     0.18200
O1178       O  0.42975739  0.62000962  0.00942477    -0.64100
H1179       H  0.38979988  0.64979620  0.01551320     0.16600
C1180       C  0.33985020  0.65957345  0.04589917     0.28900
C1181       C  0.32036622  0.67832646  0.04864923    -0.25000
C1182       C  0.30006053  0.67861890  0.02613007    -0.24300
C1183       C  0.29914172  0.65966216  0.00082665     0.40300
C1184       C  0.31840331  0.64071405  0.99833005    -0.26700
O1185       O  0.35930155  0.65946620  0.06858562    -0.58600
H1186       H  0.32120181  0.69286079  0.06819306     0.16000
O1187       O  0.27963948  0.65972320  0.97821931    -0.60100
H1188       H  0.31762465  0.62646532  0.97845715     0.14400
H1189       H  0.43306717  0.62469165  0.98601200     0.46300
H1190       H  0.37026375  0.67469746  0.06280441     0.41600
H1191       H  0.28543927  0.67170897  0.96041048     0.45100
H1192       H  0.32661720  0.58239686  0.04185932     0.36600
C1193       C  0.08522204  0.62964350  0.99266271    -0.27700
C1194       C  0.11016485  0.62213766  0.00107448     0.01900
C1195       C  0.11531599  0.59585862  0.00894418     0.30000
C1196       C  0.09554134  0.57736658  0.00843524    -0.19500
C1197       C  0.07033677  0.58468713  0.00012647    -0.28900
C1198       C  0.06532169  0.61121952  0.99222589     0.44100
C1199       C  0.13023119  0.64226702  0.00436655     0.05200
O1200       O  0.13935739  0.58836365  0.01874894    -0.57400
H1201       H  0.09996840  0.55728736  0.01510476     0.18200
O1202       O  0.04122912  0.61934404  0.98346979    -0.64100
H1203       H  0.08112467  0.64996430  0.98681610     0.16600
C1204       C  0.15073137  0.64390635  0.98174402     0.28900
C1205       C  0.16998592  0.66267238  0.98646906    -0.25000
C1206       C  0.16880034  0.67998806  0.01344512    -0.24300
C1207       C  0.14813212  0.67849109  0.03575118     0.40300
C1208       C  0.12903004  0.65966322  0.03115592    -0.26700
O1209       O  0.15206102  0.62729607  0.95508322    -0.58600
H1210       H  0.18574098  0.66390456  0.96899960     0.16000
O1211       O  0.14686328  0.69494648  0.06255407    -0.60100
H1212       H  0.11335226  0.65841716  0.04874091     0.14400
H1213       H  0.03380560  0.62726653  0.00376913     0.46300
H1214       H  0.14319549  0.63667644  0.93699800     0.41600
H1215       H  0.13530158  0.70941644  0.05581127     0.45100
H1216       H  0.14774444  0.58130967  0.99856643     0.36600
C1217       C  0.35275670  0.50963145  0.87861600    -0.27700
C1218       C  0.35604371  0.00162472  0.84473798     0.01900
C1219       C  0.38029376  0.99250879  0.83429667     0.30000
C1220       C  0.40130815  0.99320273  0.85609170    -0.19500
C1221       C  0.39802270  0.50154697  0.89025878    -0.28900
C1222       C  0.37350900  0.51062560  0.90031825     0.44100
C1223       C  0.33259610  0.99865443  0.82407924     0.05200
O1224       O  0.38348940  0.98221175  0.80323373    -0.57400
H1225       H  0.41951138  0.98516513  0.84799909     0.18200
O1226       O  0.36937930  0.52038129  0.93150610    -0.64100
H1227       H  0.33412055  0.51622019  0.88719123     0.16600
C1228       C  0.31221236  0.98268983  0.83496249     0.28900
C1229       C  0.28909571  0.98194672  0.81742749    -0.25000
C1230       C  0.28550386  0.99727001  0.78894564    -0.24300
C1231       C  0.30600220  0.51276577  0.77939782     0.40300
C1232       C  0.32935041  0.51269100  0.79674030    -0.26700
O1233       O  0.31484589  0.96748836  0.86267815    -0.58600
H1234       H  0.27380024  0.96943620  0.82640241     0.16000
O1235       O  0.30333544  0.52922683  0.75287631    -0.60100
H1236       H  0.34476127  0.52544609  0.78867368     0.14400
H1237       H  0.37462699  0.53907573  0.93040675     0.46300
H1238       H  0.30653109  0.97761758  0.88072530     0.41600
H1239       H  0.29597065  0.54563903  0.76209165     0.45100
H1240       H  0.37896728  0.96337522  0.80532838     0.36600
C1241       C  0.09262176  0.50238699  0.83563175    -0.27700
C1242       C  0.11841330  0.00001846  0.84920874     0.01900
C1243       C  0.12132634  0.00122654  0.88367896     0.30000
C1244       C  0.09986179  0.00004222  0.90440573    -0.19500
C1245       C  0.07334835  0.49977984  0.89070659    -0.28900
C1246       C  0.07069278  0.50123455  0.85602739     0.44100
C1247       C  0.14138944  0.00029443  0.82709151     0.05200
O1248       O  0.14520515  0.00309175  0.89753439    -0.57400
H1249       H  0.10305056  0.00123319  0.93078119     0.18200
O1250       O  0.04694640  0.50115260  0.84167167    -0.64100
H1251       H  0.09020118  0.50368118  0.80913097     0.16600
C1252       C  0.14565745  0.97991874  0.80435137     0.28900
C1253       C  0.16826942  0.97916372  0.78559246    -0.25000
C1254       C  0.18753901  0.99856744  0.78882636    -0.24300
C1255       C  0.18353128  0.51914767  0.81490153     0.40300
C1256       C  0.16061638  0.52012523  0.83326458    -0.26700
O1257       O  0.12842476  0.95969411  0.80155293    -0.58600
H1258       H  0.16998356  0.96291348  0.76880907     0.16000
O1259       O  0.20233078  0.53720708  0.82150065    -0.60100
H1260       H  0.15843551  0.53500933  0.85222514     0.14400
H1261       H  0.04185787  0.51988473  0.84042133     0.46300
H1262       H  0.11923572  0.96292761  0.78055953     0.41600
H1263       H  0.19758826  0.55303976  0.80869168     0.45100
H1264       H  0.15160214  0.98478621  0.89878590     0.36600
C1265       C  0.98647219  0.60939831  0.83921416    -0.27700
C1266       C  0.48809233  0.63489068  0.85210545     0.01900
C1267       C  0.47801378  0.63685617  0.88420311     0.30000
C1268       C  0.47638201  0.61453582  0.90425058    -0.19500
C1269       C  0.48508112  0.58981599  0.89306435    -0.28900
C1270       C  0.98525666  0.58683121  0.85922287     0.44100
C1271       C  0.49211255  0.65882421  0.83190994     0.05200
O1272       O  0.46982571  0.66062190  0.89626213    -0.57400
H1273       H  0.46857131  0.61676104  0.92894499     0.18200
O1274       O  0.98780503  0.56262221  0.84472022    -0.64100
H1275       H  0.98978364  0.60722580  0.81291113     0.16600
C1276       C  0.01286829  0.67164159  0.83485618     0.28900
C1277       C  0.01790394  0.69319788  0.81440956    -0.25000
C1278       C  0.50085172  0.70355138  0.79212509    -0.24300
C1279       C  0.47811022  0.68885546  0.78863636     0.40300
C1280       C  0.47390547  0.66658315  0.80842768    -0.26700
O1281       O  0.03147384  0.66301657  0.85607742    -0.58600
H1282       H  0.03639472  0.70278156  0.81601697     0.16000
O1283       O  0.46038268  0.69542538  0.76514964    -0.60100
H1284       H  0.45662700  0.65510780  0.80510420     0.14400
H1285       H  0.00653223  0.55934682  0.84369810     0.46300
H1286       H  0.03124028  0.67561612  0.87477201     0.41600
H1287       H  0.46651180  0.68699172  0.74446845     0.45100
H1288       H  0.48466094  0.66787847  0.90846929     0.36600
C1289       C  0.99463333  0.81399089  0.83974194    -0.27700
C1290       C  0.49078178  0.84000684  0.82420738     0.01900
C1291       C  0.49094610  0.84207807  0.78935104     0.30000
C1292       C  0.49579432  0.81988776  0.76964799    -0.19500
C1293       C  0.49967589  0.79515511  0.78398479    -0.28900
C1294       C  0.99867069  0.79163686  0.82007235     0.44100
C1295       C  0.48803315  0.86375824  0.84599078     0.05200
O1296       O  0.48662491  0.86571716  0.77419795    -0.57400
H1297       H  0.49661617  0.82199079  0.74302995     0.18200
O1298       O  0.00205961  0.76769779  0.83489351    -0.64100
H1299       H  0.99484107  0.81177682  0.86631727     0.16600
C1300       C  0.47243584  0.86341377  0.87461928     0.28900
C1301       C  0.47144632  0.88537928  0.89557779    -0.25000
C1302       C  0.48564117  0.90819599  0.88865632    -0.24300
C1303       C  0.00173306  0.90764883  0.86159458     0.40300
C1304       C  0.00310759  0.88560543  0.84072451    -0.26700
O1305       O  0.45744561  0.84200888  0.88183130    -0.58600
H1306       H  0.45946925  0.88451329  0.91750604     0.16000
O1307       O  0.01665992  0.92913443  0.85472127    -0.60100
H1308       H  0.01624997  0.88610605  0.81995575     0.14400
H1309       H  0.02088740  0.76532341  0.83632728     0.46300
H1310       H  0.46469167  0.83441864  0.90231375     0.41600
H1311       H  0.03273193  0.92637185  0.86722889     0.45100
H1312       H  0.46771449  0.86755806  0.77345428     0.36600
C1313       C  0.39442557  0.75889383  0.61571057    -0.27700
C1314       C  0.39229396  0.74803185  0.64731029     0.01900
C1315       C  0.36802334  0.74003510  0.65892580     0.30000
C1316       C  0.34653230  0.74158538  0.63815027    -0.19500
C1317       C  0.34893810  0.75120814  0.60571059    -0.28900
C1318       C  0.37306303  0.76095234  0.59522525     0.44100
C1319       C  0.41571921  0.74543399  0.66765791     0.05200
O1320       O  0.36525077  0.73010874  0.69020030    -0.57400
H1321       H  0.32822629  0.73437118  0.64701700     0.18200
O1322       O  0.37613605  0.77238460  0.56478892    -0.64100
H1323       H  0.41283865  0.76587511  0.60686878     0.16600
C1324       C  0.43583206  0.72868830  0.65777194     0.28900
C1325       C  0.45879449  0.72817935  0.67564240    -0.25000
C1326       C  0.46235553  0.74463663  0.70318771    -0.24300
C1327       C  0.44207942  0.76135488  0.71299991     0.40300
C1328       C  0.41893403  0.76140227  0.69552994    -0.26700
O1329       O  0.43307107  0.71255863  0.63084124    -0.58600
H1330       H  0.47393694  0.71499812  0.66775193     0.16000
O1331       O  0.44500598  0.77869251  0.73862997    -0.60100
H1332       H  0.40379161  0.77474964  0.70297686     0.14400
H1333       H  0.37140446  0.79107492  0.56801245     0.46300
H1334       H  0.44165829  0.72187619  0.61236540     0.41600
H1335       H  0.45282838  0.79454719  0.72860316     0.45100
H1336       H  0.36924861  0.71113986  0.68814450     0.36600
C1337       C  0.15391488  0.75104960  0.66202261    -0.27700
C1338       C  0.12910053  0.74953313  0.64867628     0.01900
C1339       C  0.12636313  0.74802419  0.61425536     0.30000
C1340       C  0.14793223  0.74841278  0.59371549    -0.19500
C1341       C  0.17298010  0.75003988  0.60660739    -0.28900
C1342       C  0.17575405  0.75142531  0.64133578     0.44100
C1343       C  0.10591386  0.74903999  0.67029132     0.05200
O1344       O  0.10254297  0.74576057  0.60033126    -0.57400
H1345       H  0.14478876  0.74713886  0.56734043     0.18200
O1346       O  0.19955703  0.75290379  0.65542255    -0.64100
H1347       H  0.15634834  0.75213540  0.68854987     0.16600
C1348       C  0.10152288  0.72827827  0.69236186     0.28900
C1349       C  0.07847905  0.72690681  0.71035468    -0.25000
C1350       C  0.05914392  0.74621401  0.70698147    -0.24300
C1351       C  0.06392081  0.76712688  0.68473804     0.40300
C1352       C  0.08695592  0.76833804  0.66673288    -0.26700
O1353       O  0.11907940  0.70836802  0.69517152    -0.58600
H1354       H  0.07625511  0.71031516  0.72650230     0.16000
O1355       O  0.04579464  0.78622396  0.67974052    -0.60100
H1356       H  0.08990606  0.78433610  0.64952245     0.14400
H1357       H  0.20275685  0.77191990  0.65869817     0.46300
H1358       H  0.12919227  0.71269375  0.71513480     0.41600
H1359       H  0.05224914  0.80197523  0.69148650     0.45100
H1360       H  0.09873724  0.72668708  0.60042638     0.36600
C1361       C  0.24187222  0.63704877  0.65540405    -0.27700
C1362       C  0.25728274  0.61480421  0.64946194     0.01900
C1363       C  0.27448934  0.61529738  0.62247575     0.30000
C1364       C  0.27535092  0.63711728  0.60143410    -0.19500
C1365       C  0.25969235  0.65914728  0.60711481    -0.28900
C1366       C  0.24319346  0.65917149  0.63475427     0.44100
C1367       C  0.25441593  0.59085694  0.67052609     0.05200
O1368       O  0.29042117  0.59443785  0.61619796    -0.57400
H1369       H  0.28831853  0.63679432  0.58043622     0.18200
O1370       O  0.22698087  0.67990645  0.64045896    -0.64100
H1371       H  0.22813463  0.63699426  0.67554002     0.16600
C1372       C  0.25459424  0.59252279  0.70532336     0.28900
C1373       C  0.25008503  0.57004364  0.72452159    -0.25000
C1374       C  0.24563818  0.54558234  0.70963128    -0.24300
C1375       C  0.24629302  0.54361212  0.67501607     0.40300
C1376       C  0.25043306  0.56613275  0.65573144    -0.26700
O1377       O  0.25980663  0.61591145  0.72076063    -0.58600
H1378       H  0.24983333  0.57174587  0.75120967     0.16000
O1379       O  0.24136130  0.52009998  0.65977635    -0.60100
H1380       H  0.24980863  0.56438288  0.62907869     0.14400
H1381       H  0.23571292  0.69084571  0.65726905     0.46300
H1382       H  0.24333342  0.62165251  0.73074610     0.41600
H1383       H  0.25825139  0.51127328  0.65787247     0.45100
H1384       H  0.30522268  0.59691221  0.63115813     0.36600
C1385       C  0.23227213  0.91649354  0.66809803    -0.27700
C1386       C  0.25725545  0.90639636  0.66790627     0.01900
C1387       C  0.27668929  0.92032663  0.68446885     0.30000
C1388       C  0.27065631  0.94315221  0.70247007    -0.19500
C1389       C  0.24534252  0.95253000  0.70405544    -0.28900
C1390       C  0.22628188  0.93941831  0.68549954     0.44100
C1391       C  0.26253170  0.88162221  0.64963275     0.05200
O1392       O  0.30148520  0.91141600  0.68393421    -0.57400
H1393       H  0.28564238  0.95285518  0.71629844     0.18200
O1394       O  0.20161901  0.94870029  0.68419286    -0.64100
H1395       H  0.21728782  0.90657455  0.65446350     0.16600
C1396       C  0.24870014  0.85850140  0.65677057     0.28900
C1397       C  0.25125773  0.83634240  0.63636853    -0.25000
C1398       C  0.26714715  0.83703701  0.60831781    -0.24300
C1399       C  0.28227978  0.85957698  0.60251779     0.40300
C1400       C  0.27986254  0.88161672  0.62304801    -0.26700
O1401       O  0.23252315  0.85750446  0.68357065    -0.58600
H1402       H  0.23972553  0.81912172  0.64150410     0.16000
O1403       O  0.29891886  0.86059622  0.57619716    -0.60100
H1404       H  0.29074026  0.89915773  0.61732337     0.14400
H1405       H  0.20223943  0.96378150  0.66874319     0.46300
H1406       H  0.21496447  0.85831379  0.67435431     0.41600
H1407       H  0.31451089  0.85120482  0.58360648     0.45100
H1408       H  0.30308270  0.90015952  0.70378163     0.36600
C1409       C  0.35619777  0.61240953  0.49509546    -0.27700
C1410       C  0.38210313  0.61970049  0.49437104     0.01900
C1411       C  0.38864758  0.64642962  0.49290320     0.30000
C1412       C  0.36944033  0.66547964  0.49354334    -0.19500
C1413       C  0.34339537  0.65842627  0.49500136    -0.28900
C1414       C  0.33687438  0.63144439  0.49491252     0.44100
C1415       C  0.40219367  0.59931175  0.49327941     0.05200
O1416       O  0.41371313  0.65402437  0.48882520    -0.57400
H1417       H  0.37514403  0.68590435  0.49247720     0.18200
O1418       O  0.31180873  0.62331676  0.49461692    -0.64100
H1419       H  0.35092812  0.59183309  0.49556023     0.16600
C1420       C  0.42286009  0.59974195  0.51555654     0.28900
C1421       C  0.44276753  0.58166066  0.51209037    -0.25000
C1422       C  0.44206942  0.56264826  0.48708963    -0.24300
C1423       C  0.42088443  0.56133084  0.46583125     0.40300
C1424       C  0.40116621  0.57974156  0.46887503    -0.26700
O1425       O  0.42375385  0.61774397  0.54075793    -0.58600
H1426       H  0.45874801  0.58231974  0.52907480     0.16000
O1427       O  0.41979199  0.54268473  0.44138056    -0.60100
H1428       H  0.38534262  0.57912400  0.45165640     0.14400
H1429       H  0.30757109  0.62095008  0.47094584     0.46300
H1430       H  0.41677537  0.60847864  0.56035031     0.41600
H1431       H  0.40779671  0.52911207  0.44975296     0.45100
H1432       H  0.41827801  0.66362823  0.50931148     0.36600
C1433       C  0.15895511  0.61969135  0.49223639    -0.27700
C1434       C  0.13398374  0.62804297  0.48536997     0.01900
C1435       C  0.12863011  0.65502151  0.48335899     0.30000
C1436       C  0.14825314  0.67329372  0.48784813    -0.19500
C1437       C  0.17350863  0.66507053  0.49429497    -0.28900
C1438       C  0.17862893  0.63786868  0.49684469     0.44100
C1439       C  0.11354637  0.60840501  0.48105137     0.05200
O1440       O  0.10432212  0.66370891  0.47662800    -0.57400
H1441       H  0.14365736  0.69395623  0.48568251     0.18200
O1442       O  0.20274666  0.62866782  0.50360813    -0.64100
H1443       H  0.16316426  0.59893424  0.49439439     0.16600
C1444       C  0.11555685  0.58877850  0.45666248     0.28900
C1445       C  0.09625461  0.56993484  0.45366317    -0.25000
C1446       C  0.07513817  0.57010902  0.47522142    -0.24300
C1447       C  0.07308957  0.58982652  0.49950693     0.40300
C1448       C  0.09214625  0.60892466  0.50211996    -0.26700
O1449       O  0.13599479  0.58830345  0.43520592    -0.58600
H1450       H  0.09794793  0.55484072  0.43488131     0.16000
O1451       O  0.05269240  0.59038029  0.52100147    -0.60100
H1452       H  0.09054116  0.62382902  0.52115222     0.14400
H1453       H  0.20381531  0.62832176  0.52805926     0.46300
H1454       H  0.14712001  0.57381686  0.44299940     0.41600
H1455       H  0.05782109  0.57903583  0.53973005     0.45100
H1456       H  0.10302722  0.66347612  0.45219524     0.36600
C1457       C  0.10670380  0.90064121  0.53304389    -0.27700
C1458       C  0.12354308  0.89969624  0.50594829     0.01900
C1459       C  0.12053521  0.91737826  0.47963057     0.30000
C1460       C  0.10044273  0.93545124  0.48036860    -0.19500
C1461       C  0.08340673  0.93609038  0.50719621    -0.28900
C1462       C  0.08665685  0.91875982  0.53378437     0.44100
C1463       C  0.14307365  0.87898552  0.50448815     0.05200
O1464       O  0.13617637  0.91602135  0.45232887    -0.57400
H1465       H  0.09781383  0.94868506  0.45973063     0.18200
O1466       O  0.07045058  0.91958676  0.56054984    -0.64100
H1467       H  0.10897422  0.88708286  0.55342390     0.16600
C1468       C  0.16929819  0.88503205  0.50273957     0.28900
C1469       C  0.18731899  0.86481951  0.50130576    -0.25000
C1470       C  0.17954235  0.83836147  0.50164943    -0.24300
C1471       C  0.15303069  0.83250067  0.50339478     0.40300
C1472       C  0.13515000  0.85277932  0.50483494    -0.26700
O1473       O  0.17750196  0.91060707  0.50253437    -0.58600
H1474       H  0.20743456  0.86998574  0.49997204     0.16000
O1475       O  0.14419286  0.80713351  0.50327751    -0.60100
H1476       H  0.11491252  0.84802570  0.50597750     0.14400
H1477       H  0.05735573  0.90590736  0.55624456     0.46300
H1478       H  0.17839091  0.91581046  0.52612383     0.41600
H1479       H  0.14246255  0.80225676  0.52689942     0.45100
H1480       H  0.14725536  0.93180726  0.45351547     0.36600
C1481       C  0.36649988  0.87707532  0.49554902    -0.27700
C1482       C  0.39189330  0.86829278  0.49367973     0.01900
C1483       C  0.39689831  0.84126593  0.49144167     0.30000
C1484       C  0.37659791  0.82331432  0.49219740    -0.19500
C1485       C  0.35096271  0.83192573  0.49484633    -0.28900
C1486       C  0.34611819  0.85926274  0.49589961     0.44100
C1487       C  0.41294538  0.88756943  0.49571317     0.05200
O1488       O  0.42159149  0.83223008  0.48871015    -0.57400
H1489       H  0.38106219  0.80257241  0.49083584     0.18200
O1490       O  0.32164055  0.86893975  0.49813438    -0.64100
H1491       H  0.36246403  0.89789938  0.49738276     0.16600
C1492       C  0.41563078  0.90742845  0.47183743     0.28900
C1493       C  0.43433690  0.92681317  0.47574647    -0.25000
C1494       C  0.45044186  0.92664401  0.50333170    -0.24300
C1495       C  0.44822918  0.90644291  0.52680767     0.40300
C1496       C  0.42955037  0.88701609  0.52287760    -0.26700
O1497       O  0.40044326  0.90762521  0.44428198    -0.58600
H1498       H  0.43622996  0.94211389  0.45733235     0.16000
O1499       O  0.46412018  0.90566765  0.55367605    -0.60100
H1500       H  0.42759316  0.87183895  0.54144096     0.14400
H1501       H  0.31638682  0.87229494  0.47500755     0.46300
H1502       H  0.38721242  0.92118757  0.44868554     0.41600
H1503       H  0.45549595  0.91656330  0.57075181     0.45100
H1504       H  0.42513656  0.83151526  0.46464054     0.36600
C1505       C  0.10619260  0.74865131  0.29540423    -0.27700
C1506       C  0.10599587  0.74895548  0.33009535     0.01900
C1507       C  0.08216684  0.74792441  0.34654704     0.30000
C1508       C  0.05925432  0.74756585  0.32865623    -0.19500
C1509       C  0.05910408  0.74805382  0.29374325    -0.28900
C1510       C  0.08319523  0.74783365  0.27736114     0.44100
C1511       C  0.13039750  0.75078942  0.34929071     0.05200
O1512       O  0.08096405  0.74699814  0.38039785    -0.57400
H1513       H  0.04187639  0.74626189  0.34295469     0.18200
O1514       O  0.08449388  0.74729243  0.24351753    -0.64100
H1515       H  0.12424611  0.74940055  0.28212903     0.16600
C1516       C  0.15101052  0.73324070  0.34408962     0.28900
C1517       C  0.17282165  0.73437116  0.36445652    -0.25000
C1518       C  0.17430241  0.75262272  0.39046468    -0.24300
C1519       C  0.15408840  0.77067267  0.39487280     0.40300
C1520       C  0.13259530  0.76979802  0.37432717    -0.26700
O1521       O  0.14924193  0.71375186  0.32079438    -0.58600
H1522       H  0.18803139  0.72013815  0.36091763     0.16000
O1523       O  0.15492000  0.78902261  0.41969620    -0.60100
H1524       H  0.11728020  0.78382047  0.37839507     0.14400
H1525       H  0.08797913  0.72870972  0.23768608     0.46300
H1526       H  0.16021565  0.71962447  0.30215189     0.41600
H1527       H  0.16499650  0.80384737  0.41053031     0.45100
H1528       H  0.08408660  0.72836031  0.38617418     0.36600
C1529       C  0.36574198  0.75245525  0.33347535    -0.27700
C1530       C  0.39066247  0.74883855  0.34552494     0.01900
C1531       C  0.39414805  0.74279369  0.37903272     0.30000
C1532       C  0.37312219  0.74153742  0.40031819    -0.19500
C1533       C  0.34804613  0.74607378  0.38890862    -0.28900
C1534       C  0.34445802  0.75096969  0.35482062     0.44100
C1535       C  0.41331293  0.75151136  0.32363959     0.05200
O1536       O  0.41820346  0.73829822  0.39135066    -0.57400
H1537       H  0.37668766  0.73719547  0.42607288     0.18200
O1538       O  0.32046623  0.75515787  0.34219459    -0.64100
H1539       H  0.36283250  0.75689091  0.30760077     0.16600
C1540       C  0.41802945  0.73351295  0.29791950     0.28900
C1541       C  0.44171813  0.73370577  0.28134361    -0.25000
C1542       C  0.46082701  0.75175815  0.29016491    -0.24300
C1543       C  0.45532347  0.77093610  0.31439152     0.40300
C1544       C  0.43179889  0.77059373  0.33100940    -0.26700
O1545       O  0.40041548  0.71442903  0.29060409    -0.58600
H1546       H  0.44561647  0.71890543  0.26273451     0.16000
O1547       O  0.47303374  0.78971082  0.32264593    -0.60100
H1548       H  0.42825292  0.78475635  0.35052005     0.14400
H1549       H  0.31455560  0.73766167  0.33461473     0.46300
H1550       H  0.39081595  0.72128096  0.27137651     0.41600
H1551       H  0.47212820  0.80296623  0.30477276     0.45100
H1552       H  0.42176600  0.71953505  0.38662905     0.36600
C1553       C  0.25131815  0.86011705  0.33819924    -0.27700
C1554       C  0.25356198  0.88574950  0.35099351     0.01900
C1555       C  0.25891527  0.88872906  0.38484248     0.30000
C1556       C  0.26150883  0.86665728  0.40519905    -0.19500
C1557       C  0.25897578  0.84084695  0.39275045    -0.28900
C1558       C  0.25404596  0.83786522  0.35862289     0.44100
C1559       C  0.24970502  0.90933354  0.32940698     0.05200
O1560       O  0.26164711  0.91325705  0.39843159    -0.57400
H1561       H  0.26546251  0.86999900  0.43110714     0.18200
O1562       O  0.25100678  0.81341285  0.34502026    -0.64100
H1563       H  0.24689166  0.85729631  0.31233036     0.16600
C1564       C  0.26366424  0.91282647  0.29974938     0.28900
C1565       C  0.25988470  0.93542428  0.28033738    -0.25000
C1566       C  0.24197543  0.95463321  0.28974320    -0.24300
C1567       C  0.22808628  0.95123734  0.31931027     0.40300
C1568       C  0.23198928  0.92885166  0.33883580    -0.26700
O1569       O  0.28153423  0.89460826  0.28999702    -0.58600
H1570       H  0.27045284  0.93757502  0.25740735     0.16000
O1571       O  0.21027415  0.96952554  0.32905420    -0.60100
H1572       H  0.22083646  0.92654965  0.36128562     0.14400
H1573       H  0.26833873  0.80824890  0.33722399     0.46300
H1574       H  0.27338218  0.88470171  0.27173974     0.41600
H1575       H  0.22027524  0.98370315  0.33977691     0.45100
H1576       H  0.28019040  0.91730075  0.39657698     0.36600
C1577       C  0.25086849  0.59493257  0.29208098    -0.27700
C1578       C  0.25752641  0.59162919  0.32537781     0.01900
C1579       C  0.26062789  0.56579322  0.33757514     0.30000
C1580       C  0.25576831  0.54402026  0.31719559    -0.19500
C1581       C  0.24780983  0.54748238  0.28449721    -0.28900
C1582       C  0.24625847  0.57320359  0.27169165     0.44100
C1583       C  0.25884101  0.61496829  0.34780735     0.05200
O1584       O  0.26770501  0.56157660  0.36970620    -0.57400
H1585       H  0.25725329  0.52441645  0.32735554     0.18200
O1586       O  0.23957318  0.57736787  0.23939314    -0.64100
H1587       H  0.24815965  0.61443744  0.28209905     0.16600
C1588       C  0.27273241  0.63790807  0.33958155     0.28900
C1589       C  0.27271533  0.65967857  0.36116063    -0.25000
C1590       C  0.25912196  0.65893097  0.39120468    -0.24300
C1591       C  0.24512156  0.63600073  0.39913061     0.40300
C1592       C  0.24493602  0.61457166  0.37754037    -0.26700
O1593       O  0.28733298  0.63876273  0.31132621    -0.58600
H1594       H  0.28388890  0.67687865  0.35477479     0.16000
O1595       O  0.23138201  0.63424225  0.42803656    -0.60100
H1596       H  0.23353861  0.59755207  0.38402824     0.14400
H1597       H  0.25574994  0.57547050  0.22664818     0.46300
H1598       H  0.27830940  0.65106160  0.29638581     0.41600
H1599       H  0.21442378  0.64207987  0.42309667     0.45100
H1600       H  0.28667944  0.56267806  0.36962478     0.36600
O1601       O  0.75879240  0.20585109  0.40574322    -0.86600
O1602       O  0.76026304  0.20455742  0.59407346    -0.86700
O1603       O  0.80095319  0.17383977  0.49892381    -0.88400
O1604       O  0.71848862  0.17671700  0.50177030    -0.87100
O1605       O  0.68802028  0.20895404  0.50117815    -0.86700
O1606       O  0.83280090  0.20460564  0.50014542    -0.88100
O1607       O  0.76080265  0.17406172  0.55219982    -0.86600
O1608       O  0.75804807  0.17500668  0.44704450    -0.86200
Zr1609     Zr  0.76032333  0.19716166  0.49990440     2.84300
O1610       O  0.73505464  0.22347645  0.53439448    -1.08100
O1611       O  0.78639596  0.22250202  0.46542864    -1.08900
C1612       C  0.75749698  0.18180377  0.41639303     1.06600
C1613       C  0.76043990  0.18062458  0.58297739     1.06500
C1614       C  0.82475889  0.18060555  0.49964537     1.09500
C1615       C  0.69504686  0.18463924  0.50178902     1.07300
H1616       H  0.79743713  0.21080164  0.54732645     0.32800
O1617       O  0.78681328  0.22213102  0.53404757    -1.29100
H1618       H  0.72364075  0.21337210  0.45319250     0.32500
O1619       O  0.73491617  0.22402816  0.46650453    -1.30800
O1620       O  0.76274170  0.29191253  0.59612951    -0.86600
O1621       O  0.75997836  0.29452873  0.40696636    -0.88000
O1622       O  0.83361072  0.24962059  0.55314190    -0.86600
O1623       O  0.68944894  0.25087014  0.55461843    -0.86700
O1624       O  0.68867397  0.25337787  0.44777046    -0.86400
O1625       O  0.83315277  0.24607202  0.44515438    -0.86200
O1626       O  0.80498348  0.32188617  0.49947260    -0.86600
O1627       O  0.72227020  0.32479954  0.50203466    -0.86000
O1628       O  0.83530939  0.28948182  0.49785263    -0.87100
O1629       O  0.69032382  0.29404578  0.50121394    -0.86200
O1630       O  0.80386328  0.24922577  0.59511072    -0.86600
O1631       O  0.80291126  0.24816881  0.40435250    -0.86400
O1632       O  0.71868722  0.25109665  0.40609126    -0.86000
O1633       O  0.71912320  0.24939037  0.59614419    -0.86400
O1634       O  0.76504615  0.32293506  0.55516624    -0.86700
O1635       O  0.76097961  0.32452853  0.44922136    -0.88100
Zr1636     Zr  0.76147340  0.24870180  0.56884686     2.83100
Zr1637     Zr  0.76101611  0.24987579  0.43205672     2.83500
Zr1638     Zr  0.81267198  0.24780742  0.49950317     2.84100
Zr1639     Zr  0.71028317  0.25091572  0.50099200     2.83400
Zr1640     Zr  0.76292203  0.30155407  0.50149710     2.84200
O1641       O  0.73646709  0.27661970  0.46731778    -1.08600
O1642       O  0.78792387  0.27433157  0.53447335    -1.08100
C1643       C  0.76449805  0.31592835  0.58580099     1.06500
C1644       C  0.75980413  0.31848045  0.41829691     1.09100
C1645       C  0.82721061  0.24997415  0.58403355     1.06700
C1646       C  0.69575442  0.25010970  0.58539570     1.07100
C1647       C  0.69538025  0.25284922  0.41698623     1.06600
C1648       C  0.82638253  0.24662210  0.41443464     1.06200
C1649       C  0.82839204  0.31382432  0.49789029     1.06600
C1650       C  0.69846196  0.31796710  0.50142833     1.06100
H1651       H  0.79851969  0.28605971  0.45253875     0.32800
O1652       O  0.78766450  0.27518918  0.46626972    -1.29700
H1653       H  0.72595260  0.28754096  0.54917948     0.32800
O1654       O  0.73637613  0.27622029  0.53544490    -1.31100
N1655       N  0.55119386  0.00099951  0.51302545    -0.36700
N1656       N  0.01025171  0.03906770  0.50098796    -0.57200
N1657       N  0.97377768  0.99602350  0.49942530    -0.36700
N1658       N  0.01402121  0.45881122  0.48072029    -0.57200
C1659       C  0.56412373  0.02296272  0.52117383     0.26900
C1660       C  0.56710424  0.48233308  0.48818944     0.26900
C1661       C  0.95788309  0.01634353  0.50602749     0.26900
C1662       C  0.95999941  0.47602316  0.48767005     0.26900
C1663       C  0.52968555  0.05521323  0.51030778     0.35500
C1664       C  0.98857657  0.05271658  0.49515942     0.35500
C1665       C  0.53684353  0.44574466  0.47782596     0.35500
C1666       C  0.99384822  0.44231678  0.47876948     0.35500
C1667       C  0.58820213  0.01639877  0.53297737    -0.22000
C1668       C  0.59003166  0.49197266  0.50046860    -0.22000
C1669       C  0.93422547  0.00682159  0.51621153    -0.22000
C1670       C  0.93623709  0.48361550  0.49989249    -0.22000
C1671       C  0.52066879  0.07954523  0.50047452    -0.23000
C1672       C  0.99446050  0.07796736  0.48492719    -0.23000
C1673       C  0.53086713  0.41986036  0.47053409    -0.23000
C1674       C  0.00224699  0.41685222  0.47325185    -0.23000
C1675       C  0.55567892  0.04871257  0.51488710    -0.17800
C1676       C  0.56178267  0.45560315  0.48252581    -0.18400
C1677       C  0.96811180  0.44973898  0.48409249    -0.18400
C1678       C  0.96357098  0.04311160  0.50063073    -0.18400
H1679       H  0.60321540  0.02966185  0.54078701     0.14500
H1680       H  0.60659806  0.48084156  0.50826383     0.14500
H1681       H  0.91735276  0.01811017  0.52270282     0.14500
H1682       H  0.92121979  0.47107178  0.50950485     0.14500
H1683       H  0.53182625  0.09671211  0.49403024     0.12800
H1684       H  0.98122197  0.09355877  0.47880225     0.12800
H1685       H  0.54406664  0.40395251  0.46542189     0.12800
H1686       H  0.99069017  0.39929009  0.47117011     0.12800
H1687       H  0.53436175  0.00031550  0.49944514     0.26100
H1688       H  0.99140708  0.99717995  0.48751577     0.26100
O1689       O  0.98654111  0.45441600  0.90361369    -0.86600
O1690       O  0.98634391  0.45229570  0.09285698    -0.86700
O1691       O  0.52774468  0.42358262  0.99619068    -0.88400
O1692       O  0.94461497  0.42283777  0.99839634    -0.87100
O1693       O  0.91353983  0.45447635  0.99887425    -0.86700
O1694       O  0.55819345  0.45584167  0.99652336    -0.88100
O1695       O  0.98498880  0.42185775  0.05090821    -0.86600
O1696       O  0.98548706  0.42299589  0.94437646    -0.86200
Zr1697     Zr  0.98584941  0.44473230  0.99792266     2.84300
O1698       O  0.96020215  0.47032914  0.03277066    -1.08100
O1699       O  0.51134011  0.47187345  0.96328046    -1.08900
C1700       C  0.98614223  0.43023326  0.91382009     1.06600
C1701       C  0.98567272  0.42835388  0.08179301     1.06500
C1702       C  0.55126245  0.43152503  0.99625193     1.09500
C1703       C  0.92102612  0.43034353  0.99868022     1.07300
H1704       H  0.52249394  0.45962726  0.04460633     0.32800
O1705       O  0.51151914  0.47076312  0.03158710    -1.29100
H1706       H  0.94905197  0.46011230  0.95072409     0.32500
O1707       O  0.95991868  0.47101338  0.96430860    -1.30800
O1708       O  0.98692965  0.04124217  0.09292477    -0.86600
O1709       O  0.98601891  0.04049173  0.90329182    -0.88000
O1710       O  0.55829507  0.49787672  0.05022173    -0.86600
O1711       O  0.91322755  0.49544325  0.05242461    -0.86700
O1712       O  0.91293586  0.49889807  0.94653669    -0.86400
O1713       O  0.55777175  0.49895238  0.94495742    -0.86200
O1714       O  0.52643992  0.07205474  0.99952095    -0.86600
O1715       O  0.94522633  0.07226503  0.00043752    -0.86000
O1716       O  0.55722384  0.04017010  0.99956714    -0.87100
O1717       O  0.91423123  0.04056995  0.99984117    -0.86200
O1718       O  0.52886443  0.49718814  0.09234973    -0.86600
O1719       O  0.52892051  0.99836495  0.90337440    -0.86400
O1720       O  0.94364293  0.99870042  0.90307102    -0.86000
O1721       O  0.94302721  0.49562962  0.09393243    -0.86400
O1722       O  0.98864587  0.07184927  0.05134802    -0.86700
O1723       O  0.98500253  0.07125784  0.94479736    -0.88100
Zr1724     Zr  0.98575633  0.49639909  0.06753189     2.83100
Zr1725     Zr  0.98518743  0.49823619  0.93029531     2.83500
Zr1726     Zr  0.53637202  0.49793892  0.99785549     2.84100
Zr1727     Zr  0.93466552  0.49684164  0.99934676     2.83400
Zr1728     Zr  0.98614054  0.04955348  0.99834601     2.84200
O1729       O  0.96059242  0.02359608  0.96414545    -1.08600
O1730       O  0.51039952  0.02344167  0.03231264    -1.08100
C1731       C  0.98866870  0.06522432  0.08213094     1.06500
C1732       C  0.98518187  0.06450752  0.91399648     1.09100
C1733       C  0.55220590  0.49762340  0.08110990     1.06700
C1734       C  0.91964649  0.49516594  0.08315240     1.07100
C1735       C  0.92013737  0.00011239  0.91369735     1.06600
C1736       C  0.55223954  0.99840005  0.91447791     1.06200
C1737       C  0.55001714  0.06441455  0.00011841     1.06600
C1738       C  0.92162943  0.06474105  0.00102131     1.06100
H1739       H  0.52198590  0.03562404  0.95064440     0.32800
O1740       O  0.51111108  0.02437974  0.96379877    -1.29700
H1741       H  0.94933615  0.03491382  0.04616461     0.32800
O1742       O  0.96001400  0.02375371  0.03251259    -1.31100
N1743       N  0.77517945  0.24710065  0.02194373    -0.36700
N1744       N  0.73667651  0.28793373  0.02018529    -0.57200
N1745       N  0.69655599  0.24848327  0.02307112    -0.36700
N1746       N  0.73522633  0.20761310  0.02196740    -0.57200
C1747       C  0.78966144  0.26802659  0.01344908     0.26900
C1748       C  0.78885309  0.22541710  0.01415071     0.26900
C1749       C  0.68286026  0.26993874  0.01446619     0.26900
C1750       C  0.68204517  0.22724050  0.01585929     0.26900
C1751       C  0.75763349  0.30307985  0.02425727     0.35500
C1752       C  0.71624846  0.30388527  0.02411276     0.35500
C1753       C  0.75570399  0.19191340  0.02672543     0.35500
C1754       C  0.71431787  0.19261092  0.02731262     0.35500
C1755       C  0.81288546  0.25956556  0.00043227    -0.22000
C1756       C  0.81237284  0.23262541  0.00087811    -0.22000
C1757       C  0.65922253  0.26226023  0.00227051    -0.22000
C1758       C  0.65871111  0.23530411  0.00314314    -0.22000
C1759       C  0.75052366  0.32877431  0.03095447    -0.23000
C1760       C  0.72422295  0.32929648  0.03078445    -0.23000
C1761       C  0.74781825  0.16683492  0.03523019    -0.23000
C1762       C  0.72151763  0.16726989  0.03557290    -0.23000
C1763       C  0.78294119  0.29454601  0.01848138    -0.18400
C1764       C  0.78125131  0.19933183  0.02038801    -0.18400
C1765       C  0.68896584  0.20079533  0.02137944    -0.18400
C1766       C  0.69068296  0.29630078  0.01846423    -0.18400
H1767       H  0.82862048  0.27155238  0.99163667     0.14500
H1768       H  0.82763849  0.21980402  0.99251907     0.14500
H1769       H  0.64392488  0.27477971  0.99355567     0.14500
H1770       H  0.64295128  0.22304042  0.99521978     0.14500
H1771       H  0.76297846  0.34551100  0.03461231     0.12800
H1772       H  0.71234588  0.34650840  0.03432614     0.12800
H1773       H  0.75975003  0.14986095  0.03985104     0.12800
H1774       H  0.70911181  0.15069163  0.04050741     0.12800
H1775       H  0.75826863  0.24760024  0.03561204     0.26100
H1776       H  0.71369666  0.24842446  0.03603387     0.26100
C1777       C  0.53622212  0.24908578  0.27313137     0.86400
C1778       C  0.53386381  0.22388262  0.25270788    -0.53800
C1779       C  0.01062037  0.22216117  0.23556930     0.09300
C1780       C  0.99320028  0.24670766  0.23870599     0.20300
C1781       C  0.53382274  0.27149734  0.24790812    -0.54500
C1782       C  0.01065996  0.27066675  0.23147932     0.09400
C1783       C  0.00874712  0.24970890  0.29516948    -0.54100
C1784       C  0.98723074  0.24904387  0.27592093     0.10000
H1785       H  0.54852264  0.20876009  0.25293983     0.14500
H1786       H  0.97584921  0.24565433  0.22306108     0.00300
H1787       H  0.54756272  0.28746386  0.24645023     0.14800
H1788       H  0.00717075  0.25138985  0.32170753     0.14600
C1789       C  0.71114396  0.50075797  0.22660141     0.86400
C1790       C  0.71357141  0.47800264  0.25117414    -0.53800
C1791       C  0.73628724  0.47694642  0.26782972     0.09300
C1792       C  0.75475730  0.49970878  0.25863160     0.20300
C1793       C  0.71415375  0.02484102  0.24864524    -0.54500
C1794       C  0.73710610  0.02510687  0.26461190     0.09400
C1795       C  0.73493543  0.49845588  0.20428615    -0.54100
C1796       C  0.75784004  0.49840521  0.22070581     0.10000
H1797       H  0.69857689  0.46349795  0.25462841     0.14500
H1798       H  0.77317083  0.49944412  0.27224131     0.00300
H1799       H  0.70086131  0.04085791  0.25208792     0.14800
H1800       H  0.73359451  0.49727565  0.17757195     0.14600
C1801       C  0.53417276  0.24547570  0.72727886     0.86400
C1802       C  0.53042576  0.27051202  0.74782832    -0.53800
C1803       C  0.00753094  0.27168136  0.76527591     0.09300
C1804       C  0.99091038  0.24689350  0.76062606     0.20300
C1805       C  0.53050176  0.22286038  0.75215431    -0.54500
C1806       C  0.00838821  0.22348552  0.76908157     0.09400
C1807       C  0.00979605  0.24418768  0.70554217    -0.54100
C1808       C  0.98708734  0.24476074  0.72290716     0.10000
H1809       H  0.54455459  0.28616049  0.74871719     0.14500
H1810       H  0.97297078  0.24715733  0.77539536     0.00300
H1811       H  0.54352017  0.20653081  0.75520257     0.14800
H1812       H  0.01061294  0.24279424  0.67879687     0.14600
C1813       C  0.71316430  0.49898077  0.77074118     0.86400
C1814       C  0.71656727  0.02225436  0.74779021    -0.53800
C1815       C  0.73869651  0.02212680  0.72978736     0.09300
C1816       C  0.75606114  0.49903159  0.73658190     0.20300
C1817       C  0.71664977  0.47513578  0.74768879    -0.54500
C1818       C  0.73871939  0.47513436  0.72951006     0.09400
C1819       C  0.73751157  0.49836162  0.79203301    -0.54100
C1820       C  0.76002812  0.49848576  0.77439218     0.10000
H1821       H  0.70276494  0.03818272  0.74637536     0.14500
H1822       H  0.77412501  0.49908881  0.72198060     0.00300
H1823       H  0.70411494  0.45830082  0.74707248     0.14800
H1824       H  0.73694222  0.49791641  0.81884677     0.14600
C1825       C  0.59278707  0.50022247  0.15986441    -0.27700
C1826       C  0.61763904  0.49839696  0.14655441     0.01900
C1827       C  0.61927457  0.99812576  0.11298376     0.30000
C1828       C  0.59801880  0.99827393  0.09223437    -0.19500
C1829       C  0.57424633  0.49774880  0.10459570    -0.28900
C1830       C  0.57115352  0.49967654  0.13924287     0.44100
C1831       C  0.64042915  0.49892263  0.16827436     0.05200
O1832       O  0.64338840  0.99929744  0.09937757    -0.57400
H1833       H  0.60154744  0.99893572  0.06586187     0.18200
O1834       O  0.54724501  0.50148109  0.15326854    -0.64100
H1835       H  0.59016981  0.50189417  0.18634794     0.16600
C1836       C  0.64308112  0.01862868  0.19050364     0.28900
C1837       C  0.66563480  0.01969868  0.20903639    -0.25000
C1838       C  0.68603062  0.50022332  0.20661979    -0.24300
C1839       C  0.67827897  0.47695235  0.19013916     0.40300
C1840       C  0.65570625  0.47647597  0.17140093    -0.26700
O1841       O  0.62584987  0.03892522  0.19264286    -0.58600
H1842       H  0.66792322  0.03674028  0.22440488     0.16000
O1843       O  0.69313931  0.45473192  0.19125190    -0.60100
H1844       H  0.65027639  0.45853035  0.15883697     0.14400
H1845       H  0.54217691  0.48312404  0.15814706     0.46300
H1846       H  0.63103510  0.05141510  0.17507525     0.41600
H1847       H  0.68311872  0.44181869  0.20430100     0.45100
H1848       H  0.64756594  0.01826771  0.09828625     0.36600
C1849       C  0.80965939  0.01634150  0.15756807    -0.27700
C1850       C  0.83054087  0.49771075  0.16897628     0.01900
C1851       C  0.82746258  0.48380641  0.19869948     0.30000
C1852       C  0.80399053  0.48472731  0.21573599    -0.19500
C1853       C  0.78314949  0.49907908  0.20330340    -0.28900
C1854       C  0.78619330  0.01732335  0.17451787     0.44100
C1855       C  0.85412216  0.49520601  0.14862298     0.05200
O1856       O  0.84699644  0.46863383  0.21076332    -0.57400
H1857       H  0.80196375  0.47352704  0.23818089     0.18200
O1858       O  0.76767702  0.03438700  0.16382571    -0.64100
H1859       H  0.81240608  0.02855935  0.13594792     0.16600
C1860       C  0.85267721  0.48437444  0.11675259     0.28900
C1861       C  0.87429756  0.48398785  0.09634228    -0.25000
C1862       C  0.89794066  0.49413434  0.10711478    -0.24300
C1863       C  0.89913047  0.00328615  0.13943071     0.40300
C1864       C  0.87715132  0.00409302  0.15979852    -0.26700
O1865       O  0.83000992  0.47443056  0.10510328    -0.58600
H1866       H  0.87241558  0.47580060  0.07174699     0.16000
O1867       O  0.92220013  0.01118546  0.15212152    -0.60100
H1868       H  0.87887355  0.01081279  0.18509469     0.14400
H1869       H  0.76992168  0.05043635  0.17740445     0.46300
H1870       H  0.82935849  0.45609033  0.11323477     0.41600
H1871       H  0.92915483  0.99551263  0.16348466     0.45100
H1872       H  0.84456626  0.45110990  0.20053651     0.36600
C1873       C  0.50528937  0.38393019  0.15183495    -0.27700
C1874       C  0.99101333  0.36118052  0.14690644     0.01900
C1875       C  0.97454309  0.36082759  0.11942036     0.30000
C1876       C  0.97233045  0.38309170  0.09916736    -0.19500
C1877       C  0.98615212  0.40623060  0.10592616    -0.28900
C1878       C  0.50270684  0.40650370  0.13219727     0.44100
C1879       C  0.99559953  0.33706305  0.16708063     0.05200
O1880       O  0.96115640  0.33854640  0.11145869    -0.57400
H1881       H  0.96008744  0.38208651  0.07765367     0.18200
O1882       O  0.51743926  0.42810594  0.13905997    -0.64100
H1883       H  0.51836665  0.38434126  0.17253179     0.16600
C1884       C  0.52122140  0.32590244  0.16663472     0.28900
C1885       C  0.52579834  0.30383167  0.18642963    -0.25000
C1886       C  0.00469387  0.29244929  0.20774573    -0.24300
C1887       C  0.97959171  0.30238092  0.20364631     0.40300
C1888       C  0.97521937  0.32430128  0.18326234    -0.26700
O1889       O  0.54109189  0.33663907  0.14891910    -0.58600
H1890       H  0.54511785  0.29611565  0.18770392     0.16000
O1891       O  0.95926813  0.29159797  0.22036919    -0.60100
H1892       H  0.95590990  0.33187360  0.18091548     0.14400
H1893       H  0.50810768  0.43756315  0.15686086     0.46300
H1894       H  0.55146296  0.34644971  0.16527946     0.41600
H1895       H  0.95854098  0.30106871  0.24178058     0.45100
H1896       H  0.97317482  0.32781169  0.09802243     0.36600
C1897       C  0.98228562  0.10901623  0.15896018    -0.27700
C1898       C  0.99566038  0.13170551  0.14894925     0.01900
C1899       C  0.50638763  0.13151221  0.11645139     0.30000
C1900       C  0.50382424  0.10949241  0.09592904    -0.19500
C1901       C  0.99139379  0.08735883  0.10622232    -0.28900
C1902       C  0.98006195  0.08704653  0.13793356     0.44100
C1903       C  0.99780936  0.15488671  0.17163989     0.05200
O1904       O  0.52054179  0.15255817  0.10561336    -0.57400
H1905       H  0.51227115  0.11021576  0.07148493     0.18200
O1906       O  0.96639909  0.06562285  0.14846054    -0.64100
H1907       H  0.97318552  0.10846815  0.18305807     0.16600
C1908       C  0.99120584  0.18051748  0.16137463     0.28900
C1909       C  0.99495429  0.20211611  0.18251593    -0.25000
C1910       C  0.00496090  0.19873714  0.21435499    -0.24300
C1911       C  0.51232351  0.17285636  0.22370337     0.40300
C1912       C  0.50855574  0.15131986  0.20265355    -0.26700
O1913       O  0.98102966  0.18471154  0.13067819    -0.58600
H1914       H  0.99050889  0.22163570  0.17365063     0.16000
O1915       O  0.52160291  0.16833130  0.25481173    -0.60100
H1916       H  0.51385945  0.13190640  0.21112001     0.14400
H1917       H  0.94837810  0.06933854  0.14234755     0.46300
H1918       H  0.96220288  0.18389257  0.13391206     0.41600
H1919       H  0.50630781  0.16839932  0.26946923     0.45100
H1920       H  0.51086600  0.16003148  0.08680509     0.36600
C1921       C  0.65017900  0.35028396  0.98124402    -0.27700
C1922       C  0.63261003  0.35500139  0.00687770     0.01900
C1923       C  0.63461869  0.34100169  0.03666756     0.30000
C1924       C  0.65378287  0.32207425  0.04033414    -0.19500
C1925       C  0.67115492  0.31711847  0.01457749    -0.28900
C1926       C  0.66934234  0.33132133  0.98489626     0.44100
C1927       C  0.61212015  0.37452419  0.00242966     0.05200
O1928       O  0.61780781  0.34557963  0.06218385    -0.57400
H1929       H  0.65507403  0.31114741  0.06320454     0.18200
O1930       O  0.68611010  0.32663806  0.95935738    -0.64100
H1931       H  0.64877889  0.36108045  0.95828518     0.16600
C1932       C  0.61745155  0.40143871  0.00459548     0.28900
C1933       C  0.59755032  0.41967986  0.00208725    -0.25000
C1934       C  0.57205241  0.41150332  0.99693157    -0.24300
C1935       C  0.56703421  0.38431934  0.99359223     0.40300
C1936       C  0.58698265  0.36611917  0.99674323    -0.26700
O1937       O  0.64191875  0.41003069  0.01051414    -0.58600
H1938       H  0.60217384  0.44030074  0.00475371     0.16000
O1939       O  0.54275866  0.37518153  0.98769581    -0.60100
H1940       H  0.58283026  0.34533037  0.99479218     0.14400
H1941       H  0.67852354  0.31182976  0.94682786     0.46300
H1942       H  0.64941311  0.41343246  0.98837392     0.41600
H1943       H  0.54140669  0.37411720  0.96330258     0.45100
H1944       H  0.62483683  0.36100631  0.07405718     0.36600
C1945       C  0.88715162  0.36435284  0.99443181    -0.27700
C1946       C  0.86210374  0.37171013  0.00264050     0.01900
C1947       C  0.85622180  0.39814716  0.00860772     0.30000
C1948       C  0.87554313  0.41700678  0.00700344    -0.19500
C1949       C  0.90092659  0.40985766  0.99918283    -0.28900
C1950       C  0.90657552  0.38317625  0.99259064     0.44100
C1951       C  0.84225231  0.35156857  0.00605650     0.05200
O1952       O  0.83181216  0.40554436  0.01726882    -0.57400
H1953       H  0.87061146  0.43722753  0.01241830     0.18200
O1954       O  0.93079766  0.37527566  0.98373544    -0.64100
H1955       H  0.89164873  0.34392641  0.98960001     0.16600
C1956       C  0.82359163  0.34824242  0.98151404     0.28900
C1957       C  0.80412640  0.32979494  0.98601312    -0.25000
C1958       C  0.80325252  0.31451147  0.01476035    -0.24300
C1959       C  0.82215648  0.31759437  0.03908755     0.40300
C1960       C  0.84154226  0.33616318  0.03465879    -0.26700
O1961       O  0.82415803  0.36306890  0.95327148    -0.58600
H1962       H  0.78975374  0.32725050  0.96704557     0.16000
O1963       O  0.82141172  0.30298421  0.06749869    -0.60100
H1964       H  0.85587181  0.33878492  0.05367195     0.14400
H1965       H  0.93866176  0.36870528  0.00439655     0.46300
H1966       H  0.83614977  0.35378787  0.93818330     0.41600
H1967       H  0.83321063  0.28804375  0.06341422     0.45100
H1968       H  0.82337791  0.41024462  0.99618987     0.36600
C1969       C  0.88702241  0.13026623  0.01132465    -0.27700
C1970       C  0.86142076  0.12197129  0.01209891     0.01900
C1971       C  0.85573371  0.09515108  0.00919569     0.30000
C1972       C  0.87547486  0.07699077  0.00503491    -0.19500
C1973       C  0.90129414  0.08502737  0.00410638    -0.28900
C1974       C  0.90693360  0.11210429  0.00731737     0.44100
C1975       C  0.84063395  0.14145027  0.01489906     0.05200
O1976       O  0.83087009  0.08646431  0.01063092    -0.57400
H1977       H  0.87038233  0.05645150  0.00286421     0.18200
O1978       O  0.93170764  0.12111698  0.00709271    -0.64100
H1979       H  0.89156433  0.15096000  0.01340313     0.16600
C1980       C  0.83878381  0.15818489  0.04249351     0.28900
C1981       C  0.81903009  0.17668057  0.04430654    -0.25000
C1982       C  0.80111820  0.17869434  0.01876587    -0.24300
C1983       C  0.80288478  0.16192578  0.99124457     0.40300
C1984       C  0.82251845  0.14334529  0.98950929    -0.26700
O1985       O  0.85566403  0.15595897  0.06820696    -0.58600
H1986       H  0.81770299  0.18957020  0.06556869     0.16000
O1987       O  0.78560688  0.16370677  0.96592198    -0.60100
H1988       H  0.82386019  0.13061465  0.96809462     0.14400
H1989       H  0.93536582  0.12568882  0.98373348     0.46300
H1990       H  0.86801276  0.17057050  0.06522580     0.41600
H1991       H  0.79263413  0.17733279  0.95094036     0.45100
H1992       H  0.82744311  0.08321434  0.03438845     0.36600
C1993       C  0.58481144  0.13016260  0.00635644    -0.27700
C1994       C  0.61045905  0.12206772  0.00604139     0.01900
C1995       C  0.61623754  0.09522746  0.00318457     0.30000
C1996       C  0.59640093  0.07683127  0.00122366    -0.19500
C1997       C  0.57050222  0.08473457  0.00169175    -0.28900
C1998       C  0.56487824  0.11185549  0.00419372     0.44100
C1999       C  0.63090795  0.14186499  0.00986281     0.05200
O2000       O  0.64118868  0.08671867  0.00386346    -0.57400
H2001       H  0.60147329  0.05625096  0.99951840     0.18200
O2002       O  0.54007129  0.12081357  0.00413667    -0.64100
H2003       H  0.58020717  0.15085590  0.00836637     0.16600
C2004       C  0.64948969  0.14578038  0.98501731     0.28900
C2005       C  0.66851636  0.16479130  0.98928080    -0.25000
C2006       C  0.66897057  0.18035862  0.01787771    -0.24300
C2007       C  0.65018883  0.17678547  0.04244903     0.40300
C2008       C  0.63138168  0.15750990  0.03843101    -0.26700
O2009       O  0.64891610  0.13149132  0.95628580    -0.58600
H2010       H  0.68275803  0.16770603  0.97006133     0.16000
O2011       O  0.65036133  0.19176430  0.07062675    -0.60100
H2012       H  0.61710166  0.15474177  0.05763806     0.14400
H2013       H  0.53689395  0.12762760  0.02674021     0.46300
H2014       H  0.63746367  0.14142952  0.94136035     0.41600
H2015       H  0.63844647  0.20649809  0.06616791     0.45100
H2016       H  0.64522617  0.08129807  0.98088049     0.36600
C2017       C  0.85390326  0.01156080  0.87659112    -0.27700
C2018       C  0.85517708  0.49969139  0.84775230     0.01900
C2019       C  0.88007681  0.49379034  0.83631703     0.30000
C2020       C  0.90094048  0.49451624  0.85824009    -0.19500
C2021       C  0.89877879  0.00201950  0.88913455    -0.28900
C2022       C  0.87460972  0.01245501  0.89843975     0.44100
C2023       C  0.83218172  0.49727959  0.82637777     0.05200
O2024       O  0.88414381  0.48675124  0.80400929    -0.57400
H2025       H  0.91978494  0.48912241  0.84916451     0.18200
O2026       O  0.87078188  0.02338859  0.92906721    -0.64100
H2027       H  0.83543502  0.01897145  0.88469217     0.16600
C2028       C  0.81203021  0.48031577  0.83542617     0.28900
C2029       C  0.78909754  0.48033315  0.81760511    -0.25000
C2030       C  0.78553956  0.49739979  0.79079775    -0.24300
C2031       C  0.80645146  0.01300970  0.77826332     0.40300
C2032       C  0.82986610  0.01335330  0.79548957    -0.26700
O2033       O  0.81469033  0.46351416  0.86165173    -0.58600
H2034       H  0.77386084  0.46714791  0.82510669     0.16000
O2035       O  0.80345422  0.02927520  0.75161075    -0.60100
H2036       H  0.84502954  0.02639918  0.78738395     0.14400
H2037       H  0.87578942  0.04207158  0.92666856     0.46300
H2038       H  0.80473655  0.47158968  0.87996550     0.41600
H2039       H  0.79653968  0.04588769  0.76084216     0.45100
H2040       H  0.88146665  0.46748366  0.80333361     0.36600
C2041       C  0.59320078  0.00253990  0.83562456    -0.27700
C2042       C  0.61856104  0.50312840  0.84987862     0.01900
C2043       C  0.62100670  0.50133288  0.88429798     0.30000
C2044       C  0.59920698  0.50023706  0.90431105    -0.19500
C2045       C  0.57443060  0.99966589  0.89092790    -0.28900
C2046       C  0.57152363  0.00037163  0.85625824     0.44100
C2047       C  0.64179730  0.50290929  0.82845929     0.05200
O2048       O  0.64471918  0.50013749  0.89872876    -0.57400
H2049       H  0.60212160  0.49875833  0.93070942     0.18200
O2050       O  0.54777650  0.99832812  0.84213948    -0.64100
H2051       H  0.59053555  0.00319514  0.80912592     0.16600
C2052       C  0.64520260  0.48324467  0.80456394     0.28900
C2053       C  0.66785443  0.48207160  0.78599563    -0.25000
C2054       C  0.68804176  0.50019402  0.79088456    -0.24300
C2055       C  0.68391120  0.02062568  0.81366066     0.40300
C2056       C  0.66088417  0.02216487  0.83175209    -0.26700
O2057       O  0.62694096  0.46417463  0.80027015    -0.58600
H2058       H  0.66877627  0.46680218  0.76768253     0.16000
O2059       O  0.70262966  0.03899266  0.81928372    -0.60100
H2060       H  0.65857085  0.03762699  0.84993720     0.14400
H2061       H  0.54218361  0.01667188  0.83825346     0.46300
H2062       H  0.61786739  0.46900731  0.77968285     0.41600
H2063       H  0.69731045  0.05471622  0.80664345     0.45100
H2064       H  0.64950914  0.48129622  0.89825150     0.36600
C2065       C  0.49627578  0.10911530  0.83951531    -0.27700
C2066       C  0.98662607  0.13096273  0.84767165     0.01900
C2067       C  0.97518817  0.13286165  0.87902921     0.30000
C2068       C  0.97401794  0.11083648  0.89961832    -0.19500
C2069       C  0.98442614  0.08650704  0.88968395    -0.28900
C2070       C  0.49482083  0.08651929  0.85932024     0.44100
C2071       C  0.99147812  0.15500426  0.82799593     0.05200
O2072       O  0.96585991  0.15644753  0.89023478    -0.57400
H2073       H  0.96541951  0.11303510  0.92388298     0.18200
O2074       O  0.50556238  0.06361211  0.84801140    -0.64100
H2075       H  0.50594942  0.10808147  0.81580324     0.16600
C2076       C  0.51347776  0.17172745  0.83562826     0.28900
C2077       C  0.51841584  0.19378910  0.81605645    -0.25000
C2078       C  0.00131797  0.20118100  0.79120996    -0.24300
C2079       C  0.97697847  0.18903899  0.78997415     0.40300
C2080       C  0.97216376  0.16619823  0.80851057    -0.26700
O2081       O  0.53131552  0.16387963  0.85834563    -0.58600
H2082       H  0.53641034  0.20413237  0.81899255     0.16000
O2083       O  0.95808064  0.19866086  0.76992030    -0.60100
H2084       H  0.95350011  0.15694282  0.80723184     0.14400
H2085       H  0.52348553  0.06389364  0.85607173     0.46300
H2086       H  0.52683423  0.17347791  0.87890466     0.41600
H2087       H  0.96131617  0.19060729  0.74796987     0.45100
H2088       H  0.98070031  0.16533049  0.90061328     0.36600
C2089       C  0.49263484  0.31516435  0.83914683    -0.27700
C2090       C  0.99171285  0.34020357  0.82514183     0.01900
C2091       C  0.99318980  0.34207518  0.79036499     0.30000
C2092       C  0.99766007  0.31955411  0.77111050    -0.19500
C2093       C  0.00018903  0.29474141  0.78582851    -0.28900
C2094       C  0.49611307  0.29254881  0.81965674     0.44100
C2095       C  0.98897679  0.36415523  0.84649595     0.05200
O2096       O  0.99056755  0.36585262  0.77489974    -0.57400
H2097       H  0.99939090  0.32147517  0.74453626     0.18200
O2098       O  0.49544213  0.26830826  0.83435021    -0.64100
H2099       H  0.48955425  0.31290460  0.86545648     0.16600
C2100       C  0.97091972  0.36513075  0.87253821     0.28900
C2101       C  0.96982017  0.38708061  0.89355885    -0.25000
C2102       C  0.98631829  0.40861125  0.88906691    -0.24300
C2103       C  0.50843614  0.40674907  0.86554145     0.40300
C2104       C  0.51009247  0.38448925  0.84502407    -0.26700
O2105       O  0.95372230  0.34504895  0.87701929    -0.58600
H2106       H  0.95598142  0.38723842  0.91361690     0.16000
O2107       O  0.52737557  0.42539294  0.86413178    -0.60100
H2108       H  0.52631759  0.38262323  0.82838864     0.14400
H2109       H  0.51361979  0.26362237  0.83829042     0.46300
H2110       H  0.95885212  0.33633542  0.89786123     0.41600
H2111       H  0.54006690  0.42002403  0.88098109     0.45100
H2112       H  0.97182955  0.36896511  0.77378295     0.36600
C2113       C  0.89406852  0.25755385  0.61970798    -0.27700
C2114       C  0.89130844  0.24608014  0.65091640     0.01900
C2115       C  0.86676497  0.23812063  0.66155892     0.30000
C2116       C  0.84565562  0.24047116  0.64025243    -0.19500
C2117       C  0.84870156  0.25073137  0.60817208    -0.28900
C2118       C  0.87311606  0.26023767  0.59863350     0.44100
C2119       C  0.91443526  0.24291196  0.67176228     0.05200
O2120       O  0.86334935  0.22738891  0.69230924    -0.57400
H2121       H  0.82712438  0.23332719  0.64839820     0.18200
O2122       O  0.87688487  0.27203325  0.56855800    -0.64100
H2123       H  0.91268882  0.26451355  0.61160125     0.16600
C2124       C  0.93519499  0.22747139  0.66080871     0.28900
C2125       C  0.95832290  0.22754442  0.67828250    -0.25000
C2126       C  0.96145889  0.24329881  0.70656079    -0.24300
C2127       C  0.94026105  0.25809923  0.71806199     0.40300
C2128       C  0.91697324  0.25759557  0.70086433    -0.26700
O2129       O  0.93297072  0.21217563  0.63303136    -0.58600
H2130       H  0.97397590  0.21545734  0.66934482     0.16000
O2131       O  0.94232092  0.27424408  0.74503470    -0.60100
H2132       H  0.90124145  0.26979260  0.70935179     0.14400
H2133       H  0.87300607  0.29087198  0.57227637     0.46300
H2134       H  0.94178107  0.22209970  0.61524074     0.41600
H2135       H  0.95004066  0.29070599  0.73652691     0.45100
H2136       H  0.86711779  0.20842758  0.68953587     0.36600
C2137       C  0.65460762  0.25579578  0.66400706    -0.27700
C2138       C  0.63017780  0.25000270  0.65132651     0.01900
C2139       C  0.62778085  0.24385250  0.61768951     0.30000
C2140       C  0.64929247  0.24374642  0.59715825    -0.19500
C2141       C  0.67386070  0.24981536  0.60928781    -0.28900
C2142       C  0.67636693  0.25594635  0.64321692     0.44100
C2143       C  0.60696397  0.25001455  0.67274009     0.05200
O2144       O  0.60433056  0.23776070  0.60456053    -0.57400
H2145       H  0.64653598  0.23871774  0.57141034     0.18200
O2146       O  0.69974038  0.26242300  0.65627053    -0.64100
H2147       H  0.65672513  0.26061750  0.68992457     0.16600
C2148       C  0.60399163  0.23166412  0.69828083     0.28900
C2149       C  0.58065153  0.22986706  0.71551670    -0.25000
C2150       C  0.55965218  0.24635462  0.70786765    -0.24300
C2151       C  0.56330576  0.26542667  0.68285391     0.40300
C2152       C  0.58655248  0.26690402  0.66543923    -0.26700
O2153       O  0.62343142  0.21453262  0.70561469    -0.58600
H2154       H  0.57971617  0.21564735  0.73511641     0.16000
O2155       O  0.54400886  0.28250391  0.67474249    -0.60100
H2156       H  0.58856954  0.28118600  0.64578938     0.14400
H2157       H  0.70150208  0.28159432  0.65269884     0.46300
H2158       H  0.63261438  0.22265543  0.72443065     0.41600
H2159       H  0.54819308  0.29912340  0.68631689     0.45100
H2160       H  0.60262859  0.21848279  0.60716677     0.36600
C2161       C  0.74185668  0.13608905  0.65450125    -0.27700
C2162       C  0.75657545  0.11349101  0.64780206     0.01900
C2163       C  0.77349279  0.11383134  0.62052291     0.30000
C2164       C  0.77490487  0.13600721  0.60013933    -0.19500
C2165       C  0.76014072  0.15853047  0.60683650    -0.28900
C2166       C  0.74383775  0.15856787  0.63462914     0.44100
C2167       C  0.75374515  0.08962709  0.66895503     0.05200
O2168       O  0.78870845  0.09256903  0.61344579    -0.57400
H2169       H  0.78764016  0.13559695  0.57890759     0.18200
O2170       O  0.72848852  0.17979564  0.64132617    -0.64100
H2171       H  0.72826921  0.13615528  0.67480048     0.16600
C2172       C  0.75413154  0.09152069  0.70373065     0.28900
C2173       C  0.75004840  0.06914901  0.72315173    -0.25000
C2174       C  0.74582086  0.04458282  0.70853793    -0.24300
C2175       C  0.74625478  0.04232618  0.67396252     0.40300
C2176       C  0.74991496  0.06477086  0.65440525    -0.26700
O2177       O  0.75916461  0.11504490  0.71894510    -0.58600
H2178       H  0.74991404  0.07102311  0.74982571     0.16000
O2179       O  0.74159584  0.01860646  0.65907636    -0.60100
H2180       H  0.74910288  0.06283512  0.62778441     0.14400
H2181       H  0.73800080  0.19021537  0.65794736     0.46300
H2182       H  0.74280613  0.12041309  0.72955896     0.41600
H2183       H  0.75861656  0.01007030  0.65703188     0.45100
H2184       H  0.80418714  0.09485711  0.62727427     0.36600
C2185       C  0.73164311  0.41681274  0.67150435    -0.27700
C2186       C  0.75611536  0.40559200  0.67263483     0.01900
C2187       C  0.77557302  0.41841253  0.69049619     0.30000
C2188       C  0.77012107  0.44170492  0.70787303    -0.19500
C2189       C  0.74534803  0.45254467  0.70754682    -0.28900
C2190       C  0.72626191  0.44018462  0.68830821     0.44100
C2191       C  0.76118535  0.38132280  0.65337556     0.05200
O2192       O  0.79985026  0.40813884  0.69146551    -0.57400
H2193       H  0.78503641  0.45077772  0.72249580     0.18200
O2194       O  0.70218138  0.45078238  0.68571661    -0.64100
H2195       H  0.71669430  0.40755148  0.65709782     0.16600
C2196       C  0.74921100  0.35737558  0.66152182     0.28900
C2197       C  0.75158185  0.33559307  0.64035695    -0.25000
C2198       C  0.76539747  0.33752935  0.61054928    -0.24300
C2199       C  0.77844474  0.36121533  0.60344035     0.40300
C2200       C  0.77624169  0.38278507  0.62473211    -0.26700
O2201       O  0.73503272  0.35518077  0.69000678    -0.58600
H2202       H  0.74158920  0.31759813  0.64651073     0.16000
O2203       O  0.79291678  0.36378195  0.57524604    -0.60100
H2204       H  0.78557727  0.40107187  0.61821858     0.14400
H2205       H  0.70355565  0.46409349  0.66794841     0.46300
H2206       H  0.71699896  0.35796230  0.68321928     0.41600
H2207       H  0.80983882  0.35611264  0.58073302     0.45100
H2208       H  0.79924686  0.39448363  0.70888332     0.36600
C2209       C  0.85692795  0.11319625  0.50122278    -0.27700
C2210       C  0.88284264  0.12028305  0.50066858     0.01900
C2211       C  0.88963459  0.14693214  0.49992476     0.30000
C2212       C  0.87057395  0.16620210  0.49932567    -0.19500
C2213       C  0.84441778  0.15939668  0.50003509    -0.28900
C2214       C  0.83773565  0.13243242  0.50120165     0.44100
C2215       C  0.90279735  0.09978578  0.50128791     0.05200
O2216       O  0.91492523  0.15426970  0.49881434    -0.57400
H2217       H  0.87645057  0.18657705  0.49835440     0.18200
O2218       O  0.81264058  0.12454110  0.50318451    -0.64100
H2219       H  0.85157534  0.09265303  0.50216669     0.16600
C2220       C  0.91875908  0.09695574  0.52896745     0.28900
C2221       C  0.93838645  0.07827684  0.52861739    -0.25000
C2222       C  0.94218613  0.06220234  0.50090370    -0.24300
C2223       C  0.92604077  0.06474236  0.47338930     0.40300
C2224       C  0.90639224  0.08345305  0.47371913    -0.26700
O2225       O  0.91544051  0.11256623  0.55629005    -0.58600
H2226       H  0.95077233  0.07638344  0.54988631     0.16000
O2227       O  0.93000322  0.04970867  0.44569554    -0.60100
H2228       H  0.89427830  0.08561061  0.45222993     0.14400
H2229       H  0.80748056  0.12088127  0.48007947     0.46300
H2230       H  0.90309027  0.10296980  0.57051049     0.41600
H2231       H  0.91905247  0.03398288  0.44880279     0.45100
H2232       H  0.91900216  0.16030101  0.52149381     0.36600
C2233       C  0.66077626  0.11868836  0.50479253    -0.27700
C2234       C  0.63510501  0.12666569  0.50484225     0.01900
C2235       C  0.62915315  0.15353255  0.50342875     0.30000
C2236       C  0.64879193  0.17210420  0.50240994    -0.19500
C2237       C  0.67467636  0.16432508  0.50258695    -0.28900
C2238       C  0.68051857  0.13717347  0.50374430     0.44100
C2239       C  0.61460917  0.10684917  0.50698902     0.05200
O2240       O  0.60414600  0.16183693  0.50297322    -0.57400
H2241       H  0.64360927  0.19267865  0.50145886     0.18200
O2242       O  0.70535646  0.12831823  0.50370636    -0.64100
H2243       H  0.66555294  0.09801305  0.50611646     0.16600
C2244       C  0.61267955  0.08673064  0.48327837     0.28900
C2245       C  0.59299248  0.06827692  0.48577432    -0.25000
C2246       C  0.57535521  0.06943657  0.51198016    -0.24300
C2247       C  0.57738263  0.08938642  0.53582944     0.40300
C2248       C  0.59687377  0.10804144  0.53313701    -0.26700
O2249       O  0.62941582  0.08552066  0.45706336    -0.58600
H2250       H  0.59154077  0.05287709  0.46737046     0.16000
O2251       O  0.56050037  0.09069788  0.56185206    -0.60100
H2252       H  0.59838264  0.12329638  0.55171337     0.14400
H2253       H  0.70976067  0.12592362  0.52731966     0.46300
H2254       H  0.64144785  0.07108274  0.46240301     0.41600
H2255       H  0.56715816  0.07811345  0.57839519     0.45100
H2256       H  0.59891730  0.16073442  0.47949305     0.36600
C2257       C  0.60920623  0.40797892  0.51863528    -0.27700
C2258       C  0.62317666  0.40043146  0.49052084     0.01900
C2259       C  0.61737792  0.41160089  0.45964454     0.30000
C2260       C  0.59723656  0.42963220  0.45712991    -0.19500
C2261       C  0.58307437  0.43672996  0.48524351    -0.28900
C2262       C  0.58928560  0.42608480  0.51614117     0.44100
C2263       C  0.64270986  0.37974356  0.49367399     0.05200
O2264       O  0.63043664  0.40402148  0.43171150    -0.57400
H2265       H  0.59249299  0.43790156  0.43328615     0.18200
O2266       O  0.57617452  0.43360570  0.54404016    -0.64100
H2267       H  0.61368218  0.39962214  0.54251878     0.16600
C2268       C  0.66866299  0.38468851  0.48671261     0.28900
C2269       C  0.68665110  0.36453373  0.48987726    -0.25000
C2270       C  0.67913733  0.33925328  0.50011369    -0.24300
C2271       C  0.65308691  0.33466334  0.50791544     0.40300
C2272       C  0.63517912  0.35482877  0.50458469    -0.26700
O2273       O  0.67662980  0.40910028  0.47676710    -0.58600
H2274       H  0.70648164  0.36866517  0.48376310     0.16000
O2275       O  0.64477990  0.31058738  0.51866686    -0.60100
H2276       H  0.61522258  0.35096300  0.51033524     0.14400
H2277       H  0.56072524  0.42226738  0.54470256     0.46300
H2278       H  0.67839132  0.41945246  0.49740332     0.41600
H2279       H  0.64766152  0.31065683  0.54286724     0.45100
H2280       H  0.64211841  0.41881349  0.42650477     0.36600
C2281       C  0.86300392  0.37900137  0.48669233    -0.27700
C2282       C  0.88860672  0.37137498  0.49057631     0.01900
C2283       C  0.89436276  0.34489566  0.49695100     0.30000
C2284       C  0.87463488  0.32645720  0.49935128    -0.19500
C2285       C  0.84886238  0.33396078  0.49550859    -0.28900
C2286       C  0.84321109  0.36062580  0.48896616     0.44100
C2287       C  0.90913671  0.39128125  0.48856287     0.05200
O2288       O  0.91924287  0.33683247  0.50090986    -0.57400
H2289       H  0.87963068  0.30621897  0.50438475     0.18200
O2290       O  0.81847116  0.36913240  0.48496279    -0.64100
H2291       H  0.85828761  0.39940231  0.48224050     0.16600
C2292       C  0.91167037  0.40754412  0.46062886     0.28900
C2293       C  0.93124433  0.42623347  0.45935237    -0.25000
C2294       C  0.94827765  0.42906336  0.48575343    -0.24300
C2295       C  0.94567937  0.41302966  0.51377029     0.40300
C2296       C  0.92622135  0.39421676  0.51501127    -0.26700
O2297       O  0.89570389  0.40462940  0.43403734    -0.58600
H2298       H  0.93315623  0.43861513  0.43773797     0.16000
O2299       O  0.96202877  0.41566516  0.53998284    -0.60100
H2300       H  0.92425648  0.38208242  0.53683141     0.14400
H2301       H  0.81510023  0.36760030  0.46094000     0.46300
H2302       H  0.88391710  0.41989275  0.43495601     0.41600
H2303       H  0.95417740  0.42935892  0.55424116     0.45100
H2304       H  0.92559572  0.33301943  0.47827417     0.36600
C2305       C  0.60818735  0.25306015  0.29565987    -0.27700
C2306       C  0.60770734  0.25017036  0.33009996     0.01900
C2307       C  0.58405951  0.24570323  0.34589350     0.30000
C2308       C  0.56130518  0.24544793  0.32773082    -0.19500
C2309       C  0.56127474  0.24958488  0.29323675    -0.28900
C2310       C  0.58540313  0.25235898  0.27725040     0.44100
C2311       C  0.63161658  0.25226779  0.34987956     0.05200
O2312       O  0.58298547  0.24122983  0.37928609    -0.57400
H2313       H  0.54397525  0.24111150  0.34120596     0.18200
O2314       O  0.58696187  0.25478972  0.24356760    -0.64100
H2315       H  0.62626751  0.25615026  0.28298278     0.16600
C2316       C  0.65259344  0.23525634  0.34472324     0.28900
C2317       C  0.67383963  0.23628348  0.36592177    -0.25000
C2318       C  0.67441646  0.25403689  0.39251458    -0.24300
C2319       C  0.65391859  0.27175466  0.39674955     0.40300
C2320       C  0.63281228  0.27077643  0.37557796    -0.26700
O2321       O  0.65173683  0.21640767  0.32052767    -0.58600
H2322       H  0.68937497  0.22241163  0.36244088     0.16000
O2323       O  0.65415990  0.28987454  0.42186700    -0.60100
H2324       H  0.61702989  0.28425823  0.37960761     0.14400
H2325       H  0.58984457  0.23671499  0.23519553     0.46300
H2326       H  0.66227895  0.22345728  0.30212590     0.41600
H2327       H  0.66196798  0.30585335  0.41213652     0.45100
H2328       H  0.58561324  0.22205859  0.38181322     0.36600
C2329       C  0.86487335  0.25146556  0.33342280    -0.27700
C2330       C  0.88995603  0.24763947  0.34497120     0.01900
C2331       C  0.89358222  0.24162854  0.37852804     0.30000
C2332       C  0.87273579  0.24079553  0.40025495    -0.19500
C2333       C  0.84759743  0.24570779  0.38938776    -0.28900
C2334       C  0.84375656  0.25041097  0.35525724     0.44100
C2335       C  0.91272428  0.25081827  0.32295533     0.05200
O2336       O  0.91768201  0.23692290  0.39055455    -0.57400
H2337       H  0.87650808  0.23654646  0.42598199     0.18200
O2338       O  0.81969609  0.25501582  0.34307501    -0.64100
H2339       H  0.86170844  0.25598599  0.30762709     0.16600
C2340       C  0.91719406  0.23419831  0.29565029     0.28900
C2341       C  0.94118000  0.23444559  0.27952241    -0.25000
C2342       C  0.96083719  0.25130821  0.29014776    -0.24300
C2343       C  0.95538912  0.26954329  0.31555466     0.40300
C2344       C  0.93166348  0.26905699  0.33176085    -0.26700
O2345       O  0.89899668  0.21635761  0.28611177    -0.58600
H2346       H  0.94481234  0.22054972  0.25976062     0.16000
O2347       O  0.97332311  0.28759385  0.32538112    -0.60100
H2348       H  0.92832192  0.28243367  0.35218385     0.14400
H2349       H  0.81309811  0.23750901  0.33655551     0.46300
H2350       H  0.88953014  0.22503900  0.26797859     0.41600
H2351       H  0.97340213  0.30122832  0.30792385     0.45100
H2352       H  0.92070762  0.21792956  0.38677690     0.36600
C2353       C  0.75916356  0.36160931  0.34004124    -0.27700
C2354       C  0.75381455  0.38655145  0.35349369     0.01900
C2355       C  0.75061534  0.38874987  0.38792087     0.30000
C2356       C  0.75258607  0.36656259  0.40813542    -0.19500
C2357       C  0.75782269  0.34139998  0.39499085    -0.28900
C2358       C  0.76109414  0.33919276  0.36038615     0.44100
C2359       C  0.75016056  0.41004102  0.33177576     0.05200
O2360       O  0.74539885  0.41262242  0.40219537    -0.57400
H2361       H  0.74977320  0.36925413  0.43445228     0.18200
O2362       O  0.76586049  0.31528634  0.34602520    -0.64100
H2363       H  0.76133800  0.35939140  0.31356328     0.16600
C2364       C  0.76942076  0.41895968  0.30992314     0.28900
C2365       C  0.76525009  0.44137642  0.29023401    -0.25000
C2366       C  0.74188479  0.45513766  0.29161798    -0.24300
C2367       C  0.72296733  0.44651120  0.31420745     0.40300
C2368       C  0.72710462  0.42420945  0.33370225    -0.26700
O2369       O  0.79262181  0.40634885  0.30830782    -0.58600
H2370       H  0.78005145  0.44745064  0.27318994     0.16000
O2371       O  0.70019401  0.45973727  0.31749019    -0.60100
H2372       H  0.71207248  0.41784694  0.35041995     0.14400
H2373       H  0.78479633  0.31361405  0.34561614     0.46300
H2374       H  0.79174806  0.39515292  0.28827590     0.41600
H2375       H  0.70408148  0.47505544  0.33176229     0.45100
H2376       H  0.76237354  0.42084539  0.40590229     0.36600
C2377       C  0.74506923  0.09577824  0.29335677    -0.27700
C2378       C  0.75279089  0.09254755  0.32625250     0.01900
C2379       C  0.75781563  0.06684441  0.33775607     0.30000
C2380       C  0.75391398  0.04499869  0.31705641    -0.19500
C2381       C  0.74501091  0.04829140  0.28472036    -0.28900
C2382       C  0.74146457  0.07405763  0.27262713     0.44100
C2383       C  0.75400844  0.11588054  0.34873023     0.05200
O2384       O  0.76602221  0.06280908  0.36946077    -0.57400
H2385       H  0.75688022  0.02541855  0.32672544     0.18200
O2386       O  0.73386118  0.07824361  0.24067245    -0.64100
H2387       H  0.74099368  0.11520299  0.28389977     0.16600
C2388       C  0.76742692  0.13897195  0.33998795     0.28900
C2389       C  0.76784034  0.16068298  0.36160260    -0.25000
C2390       C  0.75506995  0.15983022  0.39220441    -0.24300
C2391       C  0.74110986  0.13691686  0.40046997     0.40300
C2392       C  0.74068883  0.11537335  0.37892365    -0.26700
O2393       O  0.78133369  0.13997693  0.31117669    -0.58600
H2394       H  0.77887191  0.17788760  0.35484816     0.16000
O2395       O  0.72774731  0.13527402  0.42967807    -0.60100
H2396       H  0.72966037  0.09818851  0.38578976     0.14400
H2397       H  0.74997054  0.07904059  0.22760674     0.46300
H2398       H  0.77177052  0.15209690  0.29656803     0.41600
H2399       H  0.71078540  0.14323648  0.42510840     0.45100
H2400       H  0.78499119  0.06346830  0.36814382     0.36600
O2401       O  0.76214181  0.70605149  0.40275754    -0.86600
O2402       O  0.76063957  0.70521090  0.59237918    -0.86700
O2403       O  0.80114206  0.67363067  0.49469370    -0.88400
O2404       O  0.71872245  0.67622026  0.49677895    -0.87100
O2405       O  0.68866620  0.70886219  0.49637500    -0.86700
O2406       O  0.83273344  0.70467291  0.49520858    -0.88100
O2407       O  0.76131785  0.67435569  0.55091865    -0.86600
O2408       O  0.76075411  0.67539565  0.44427297    -0.86200
Zr2409     Zr  0.76062559  0.69687684  0.49772026     2.84300
O2410       O  0.73510155  0.72323325  0.53185420    -1.08100
O2411       O  0.78654081  0.72258011  0.46340179    -1.08900
C2412       C  0.76127076  0.68204691  0.41354213     1.06600
C2413       C  0.76102403  0.68117409  0.58170681     1.06500
C2414       C  0.82486595  0.68064342  0.49389790     1.09500
C2415       C  0.69537406  0.68448957  0.49596625     1.07300
H2416       H  0.79764116  0.71077308  0.54527501     0.32800
O2417       O  0.78692338  0.72201017  0.53199623    -1.29100
H2418       H  0.72474969  0.71302430  0.44990287     0.32500
O2419       O  0.73576924  0.72372616  0.46350512    -1.30800
O2420       O  0.76151033  0.79245012  0.59268560    -0.86600
O2421       O  0.76094994  0.79432917  0.40375673    -0.88000
O2422       O  0.83333426  0.74957552  0.55106766    -0.86600
O2423       O  0.68914174  0.75038283  0.55069252    -0.86700
O2424       O  0.68937254  0.75285635  0.44454236    -0.86400
O2425       O  0.83377825  0.74845793  0.44382551    -0.86200
O2426       O  0.80573243  0.82196277  0.49806422    -0.86600
O2427       O  0.72243972  0.82436805  0.50040841    -0.86000
O2428       O  0.83552412  0.78906222  0.49747640    -0.87100
O2429       O  0.69084724  0.79326933  0.49940387    -0.86200
O2430       O  0.80352739  0.75050668  0.59291554    -0.86600
O2431       O  0.80399083  0.75021182  0.40247709    -0.86400
O2432       O  0.71934968  0.75023868  0.40287241    -0.86000
O2433       O  0.71846833  0.74956721  0.59259776    -0.86400
O2434       O  0.76428138  0.82334798  0.55155079    -0.86700
O2435       O  0.76231419  0.82469983  0.44557112    -0.88100
Zr2436     Zr  0.76129476  0.74890045  0.56619241     2.83100
Zr2437     Zr  0.76174702  0.74991772  0.42925885     2.83500
Zr2438     Zr  0.81262383  0.74778145  0.49749087     2.84100
Zr2439     Zr  0.71094824  0.75056549  0.49765032     2.83400
Zr2440     Zr  0.76332236  0.80175209  0.49819708     2.84200
O2441       O  0.73682178  0.77675152  0.46395238    -1.08600
O2442       O  0.78781053  0.77452762  0.53188929    -1.08100
C2443       C  0.76311071  0.81642810  0.58215614     1.06500
C2444       C  0.76128097  0.81837766  0.41467886     1.09100
C2445       C  0.82689027  0.75098397  0.58185999     1.06700
C2446       C  0.69514236  0.75000650  0.58158699     1.07100
C2447       C  0.69601809  0.75201681  0.41378175     1.06600
C2448       C  0.82736043  0.74960708  0.41306076     1.06200
C2449       C  0.82907329  0.81349185  0.49748222     1.06600
C2450       C  0.69872653  0.81719496  0.50080246     1.06100
H2451       H  0.79920059  0.78619580  0.45029770     0.32800
O2452       O  0.78820404  0.77522753  0.46367920    -1.29700
H2453       H  0.72616476  0.78727290  0.54561155     0.32800
O2454       O  0.73678147  0.77610124  0.53194173    -1.31100
N2455       N  0.55139616  0.50246142  0.48056183    -0.36700
N2456       N  0.01037221  0.53902894  0.47319178    -0.57200
N2457       N  0.97314316  0.49737493  0.47744336    -0.36700
N2458       N  0.01519688  0.95841840  0.50446455    -0.57200
C2459       C  0.56399868  0.52481505  0.48810138     0.26900
C2460       C  0.56675705  0.98049366  0.51940103     0.26900
C2461       C  0.95807022  0.51849502  0.48325633     0.26900
C2462       C  0.96057843  0.97371452  0.50543915     0.26900
C2463       C  0.52923110  0.55626379  0.47569026     0.35500
C2464       C  0.98904103  0.55315305  0.46717552     0.35500
C2465       C  0.53677210  0.94488536  0.50388192     0.35500
C2466       C  0.99595718  0.94183013  0.49683325     0.35500
C2467       C  0.58802054  0.51884755  0.50055168    -0.22000
C2468       C  0.58987052  0.98948853  0.53186270    -0.22000
C2469       C  0.93501558  0.51045914  0.49709949    -0.22000
C2470       C  0.93590812  0.97986901  0.51574462    -0.22000
C2471       C  0.51989994  0.58037695  0.46551300    -0.23000
C2472       C  0.99547388  0.57815010  0.45654392    -0.23000
C2473       C  0.53123294  0.92015814  0.49149891    -0.23000
C2474       C  0.00563372  0.91742160  0.48814599    -0.23000
C2475       C  0.55512722  0.55040455  0.48158796    -0.17800
C2476       C  0.56145632  0.95420644  0.51122745    -0.18400
C2477       C  0.96974264  0.94801892  0.49970259    -0.18400
C2478       C  0.96404293  0.54463570  0.47472110    -0.18400
H2479       H  0.60273316  0.53245257  0.50837881     0.14500
H2480       H  0.60644791  0.97792589  0.53859054     0.14500
H2481       H  0.91886625  0.52262507  0.50412195     0.14500
H2482       H  0.92063707  0.96634106  0.52195631     0.14500
H2483       H  0.53084213  0.59771852  0.45917816     0.12800
H2484       H  0.98258553  0.59410740  0.45065805     0.12800
H2485       H  0.54466737  0.90493567  0.48441748     0.12800
H2486       H  0.99496567  0.90007559  0.48116240     0.12800
H2487       H  0.53443978  0.50107137  0.46727595     0.26100
H2488       H  0.99000442  0.49720072  0.46368256     0.26100
O2489       O  0.98657102  0.95306457  0.90373391    -0.86600
O2490       O  0.98495288  0.95272310  0.09278065    -0.86700
O2491       O  0.52738992  0.92364200  0.99772718    -0.88400
O2492       O  0.94376901  0.92337352  0.99844795    -0.87100
O2493       O  0.91294606  0.95541329  0.99876235    -0.86700
O2494       O  0.55792697  0.95587829  0.99823555    -0.88100
O2495       O  0.98356259  0.92207132  0.05112381    -0.86600
O2496       O  0.98506197  0.92221043  0.94506454    -0.86200
Zr2497     Zr  0.98516974  0.94463948  0.99818998     2.84300
O2498       O  0.95955028  0.97109452  0.03211762    -1.08100
O2499       O  0.51122207  0.97116631  0.96334136    -1.08900
C2500       C  0.98584847  0.92903784  0.91436012     1.06600
C2501       C  0.98408374  0.92866293  0.08194736     1.06500
C2502       C  0.55089690  0.93162106  0.99847716     1.09500
C2503       C  0.92030180  0.93120389  0.99886018     1.07300
H2504       H  0.52155409  0.95981434  0.04498321     0.32800
O2505       O  0.51071844  0.97086664  0.03164562    -1.29100
H2506       H  0.94894924  0.96006287  0.95036093     0.32500
O2507       O  0.95987527  0.97093942  0.96391199    -1.30800
O2508       O  0.98598254  0.53970008  0.09507568    -0.86600
O2509       O  0.98354230  0.54261956  0.90545187    -0.88000
O2510       O  0.55722756  0.99826324  0.05053397    -0.86600
O2511       O  0.91290285  0.99682271  0.05123083    -0.86700
O2512       O  0.91348769  0.99981143  0.94450571    -0.86400
O2513       O  0.55817733  0.99791089  0.94533682    -0.86200
O2514       O  0.52674820  0.57215121  0.00092095    -0.86600
O2515       O  0.94283032  0.57103174  0.00274222    -0.86000
O2516       O  0.55770272  0.54032832  0.00049298    -0.87100
O2517       O  0.91254597  0.53863579  0.00139934    -0.86200
O2518       O  0.52752091  0.99705815  0.09233669    -0.86600
O2519       O  0.52859403  0.49981272  0.90293180    -0.86400
O2520       O  0.94245217  0.49920582  0.90443565    -0.86000
O2521       O  0.94229072  0.99681306  0.09319391    -0.86400
O2522       O  0.98675741  0.57096271  0.05423116    -0.86700
O2523       O  0.98304198  0.57242152  0.94796650    -0.88100
Zr2524     Zr  0.98507417  0.99703152  0.06703209     2.83100
Zr2525     Zr  0.98619164  0.99694358  0.92980336     2.83500
Zr2526     Zr  0.53594283  0.99772102  0.99780658     2.84100
Zr2527     Zr  0.93463316  0.99769675  0.99801225     2.83400
Zr2528     Zr  0.98481047  0.54986310  0.00044494     2.84200
O2529       O  0.95957801  0.52390697  0.96579769    -1.08600
O2530       O  0.51109745  0.52364014  0.03272099    -1.08100
C2531       C  0.98685544  0.56381979  0.08482444     1.06500
C2532       C  0.98276707  0.56644311  0.91698634     1.09100
C2533       C  0.55091811  0.99776056  0.08133465     1.06700
C2534       C  0.91899563  0.99649702  0.08212681     1.07100
C2535       C  0.91910736  0.49976700  0.91565130     1.06600
C2536       C  0.55188795  0.49971341  0.91411066     1.06200
C2537       C  0.55033502  0.56451597  0.00141781     1.06600
C2538       C  0.91935443  0.56293965  0.00284649     1.06100
H2539       H  0.52199067  0.53625294  0.95159339     0.32800
O2540       O  0.51115199  0.52487978  0.96461738    -1.29700
H2541       H  0.94878294  0.53369185  0.04808791     0.32800
O2542       O  0.95965344  0.52295777  0.03415384    -1.31100
N2543       N  0.77516063  0.74679841  0.02672398    -0.36700
N2544       N  0.73736091  0.78829701  0.02163685    -0.57200
N2545       N  0.69652771  0.74957843  0.02304440    -0.36700
N2546       N  0.73429373  0.70813107  0.02505535    -0.57200
C2547       C  0.79019124  0.76730708  0.01810340     0.26900
C2548       C  0.78851686  0.72468271  0.01988558     0.26900
C2549       C  0.68338567  0.77122229  0.01394322     0.26900
C2550       C  0.68176806  0.72856355  0.01566219     0.26900
C2551       C  0.75847513  0.80310499  0.02633966     0.35500
C2552       C  0.71711275  0.80461834  0.02472697     0.35500
C2553       C  0.75426682  0.69239828  0.03240086     0.35500
C2554       C  0.71292708  0.69382936  0.03053839     0.35500
C2555       C  0.81350489  0.75816458  0.00617463    -0.22000
C2556       C  0.81241983  0.73123374  0.00719835    -0.22000
C2557       C  0.65982631  0.76393423  0.00111359    -0.22000
C2558       C  0.65887199  0.73697718  0.00201132    -0.22000
C2559       C  0.75164617  0.82897547  0.03242509    -0.23000
C2560       C  0.72536722  0.82993868  0.03138392    -0.23000
C2561       C  0.74559247  0.66807437  0.04286868    -0.23000
C2562       C  0.71933019  0.66897408  0.04166007    -0.23000
C2563       C  0.78377869  0.79406013  0.02181976    -0.18400
C2564       C  0.78010374  0.69880218  0.02619218    -0.18400
C2565       C  0.68794571  0.70212006  0.02251788    -0.18400
C2566       C  0.69150657  0.79739783  0.01857706    -0.18400
H2567       H  0.82960994  0.76969469  0.99752373     0.14500
H2568       H  0.82754306  0.71800440  0.99946493     0.14500
H2569       H  0.64484167  0.77670672  0.99208356     0.14500
H2570       H  0.64301319  0.72497066  0.99380652     0.14500
H2571       H  0.76429559  0.84551562  0.03637655     0.12800
H2572       H  0.71371147  0.84737342  0.03436239     0.12800
H2573       H  0.75701747  0.65124183  0.04979556     0.12800
H2574       H  0.70644561  0.65299106  0.04756888     0.12800
H2575       H  0.75789360  0.74786810  0.03959100     0.26100
H2576       H  0.71328373  0.74934879  0.03681002     0.26100
C2577       C  0.53382373  0.74834007  0.27471205     0.86400
C2578       C  0.53103582  0.72305615  0.25442736    -0.53800
C2579       C  0.00900655  0.72063387  0.23550108     0.09300
C2580       C  0.99245951  0.74577445  0.23740906     0.20300
C2581       C  0.53157557  0.77072395  0.24931059    -0.54500
C2582       C  0.01037470  0.76901508  0.22852382     0.09400
C2583       C  0.00858483  0.75051054  0.29332048    -0.54100
C2584       C  0.98704609  0.74957314  0.27437111     0.10000
H2585       H  0.54534830  0.70759493  0.25481985     0.14500
H2586       H  0.97481752  0.74448859  0.22239414     0.00300
H2587       H  0.54561212  0.78640322  0.24781055     0.14800
H2588       H  0.00702361  0.75361865  0.31966043     0.14600
C2589       C  0.70980934  0.00080435  0.22617361     0.86400
C2590       C  0.71342638  0.97724409  0.24930108    -0.53800
C2591       C  0.73632069  0.97673812  0.26542225     0.09300
C2592       C  0.75370848  0.00055935  0.25758034     0.20300
C2593       C  0.71627080  0.52534064  0.24794019    -0.54500
C2594       C  0.73919302  0.52517387  0.26413291     0.09400
C2595       C  0.73358971  0.00052449  0.20338532    -0.54100
C2596       C  0.75660126  0.00051790  0.21962937     0.10000
H2597       H  0.69911421  0.96195299  0.25240870     0.14500
H2598       H  0.77220478  0.00052113  0.27102387     0.00300
H2599       H  0.70315283  0.54161260  0.25093355     0.14800
H2600       H  0.73220624  0.00022366  0.17663292     0.14600
C2601       C  0.53433954  0.74631981  0.72633325     0.86400
C2602       C  0.52987654  0.77158281  0.74646675    -0.53800
C2603       C  0.00723029  0.77117600  0.76464668     0.09300
C2604       C  0.99001948  0.74702795  0.75897875     0.20300
C2605       C  0.53075900  0.72406881  0.75178903    -0.54500
C2606       C  0.00683741  0.72319849  0.76783403     0.09400
C2607       C  0.00983638  0.74447507  0.70444513    -0.54100
C2608       C  0.98688229  0.74557920  0.72109627     0.10000
H2609       H  0.54373890  0.78745024  0.74775219     0.14500
H2610       H  0.97175644  0.74769583  0.77309608     0.00300
H2611       H  0.54432420  0.70850987  0.75645444     0.14800
H2612       H  0.01111642  0.74376757  0.67767822     0.14600
C2613       C  0.71312593  0.99849215  0.77058125     0.86400
C2614       C  0.71660492  0.52300306  0.74827404    -0.53800
C2615       C  0.73892738  0.52323604  0.73058464     0.09300
C2616       C  0.75565295  0.99786159  0.73567773     0.20300
C2617       C  0.71621349  0.97441070  0.74789603    -0.54500
C2618       C  0.73792531  0.97418980  0.72909629     0.09400
C2619       C  0.73773882  0.99784983  0.79152360    -0.54100
C2620       C  0.76013764  0.99761305  0.77344423     0.10000
H2621       H  0.70266376  0.53879781  0.74684532     0.14500
H2622       H  0.77348254  0.99767202  0.72062136     0.00300
H2623       H  0.70364915  0.95758790  0.74792480     0.14800
H2624       H  0.73742175  0.99782119  0.81834202     0.14600
C2625       C  0.59092219  0.99700636  0.16050685    -0.27700
C2626       C  0.61589046  0.99718601  0.14735223     0.01900
C2627       C  0.62078630  0.49640024  0.11222583     0.30000
C2628       C  0.59938767  0.49607263  0.09166219    -0.19500
C2629       C  0.57278613  0.99777708  0.10500642    -0.28900
C2630       C  0.56943883  0.99719347  0.13966721     0.44100
C2631       C  0.63852751  0.99736736  0.16931631     0.05200
O2632       O  0.64482580  0.49487414  0.09846634    -0.57400
H2633       H  0.60272115  0.49450667  0.06530362     0.18200
O2634       O  0.54541005  0.99722534  0.15352990    -0.64100
H2635       H  0.58809775  0.99660721  0.18703117     0.16600
C2636       C  0.64822606  0.52228592  0.18358214     0.28900
C2637       C  0.67067289  0.52287990  0.20247186    -0.25000
C2638       C  0.68438561  0.99964473  0.20696552    -0.24300
C2639       C  0.67920860  0.97797780  0.18602756     0.40300
C2640       C  0.65665485  0.97711602  0.16732470    -0.26700
O2641       O  0.63440800  0.54494362  0.17936937    -0.58600
H2642       H  0.67609875  0.54163164  0.21254597     0.16000
O2643       O  0.69649071  0.95779774  0.18296238    -0.60100
H2644       H  0.65340106  0.96062794  0.15092147     0.14400
H2645       H  0.54160368  0.97854358  0.15835565     0.46300
H2646       H  0.64200557  0.55347698  0.15961859     0.41600
H2647       H  0.68898526  0.94300799  0.19562613     0.45100
H2648       H  0.64996856  0.51332323  0.09431821     0.36600
C2649       C  0.81020823  0.51305111  0.15728922    -0.27700
C2650       C  0.82939354  0.99957147  0.16794024     0.01900
C2651       C  0.82556203  0.98411054  0.19631303     0.30000
C2652       C  0.80205288  0.98506971  0.21334762    -0.19500
C2653       C  0.78190535  0.00106677  0.20223549    -0.28900
C2654       C  0.78681016  0.51405161  0.17426339     0.44100
C2655       C  0.85298124  0.99706719  0.14738160     0.05200
O2656       O  0.84436542  0.96738085  0.20697029    -0.57400
H2657       H  0.79933742  0.97263426  0.23472156     0.18200
O2658       O  0.76779741  0.52995256  0.16226885    -0.64100
H2659       H  0.81246857  0.52418366  0.13466971     0.16600
C2660       C  0.85115937  0.98816667  0.11460918     0.28900
C2661       C  0.87285192  0.98762366  0.09427732    -0.25000
C2662       C  0.89703270  0.99561764  0.10595056    -0.24300
C2663       C  0.89965815  0.50405973  0.13962745     0.40300
C2664       C  0.87779190  0.50457150  0.16011063    -0.26700
O2665       O  0.82807249  0.98015318  0.10203467    -0.58600
H2666       H  0.87057384  0.98097734  0.06902565     0.16000
O2667       O  0.92209573  0.51467534  0.15098103    -0.60100
H2668       H  0.87912218  0.51301169  0.18462375     0.14400
H2669       H  0.76807041  0.54582976  0.17647647     0.46300
H2670       H  0.82608766  0.96168915  0.10933425     0.41600
H2671       H  0.93077607  0.50018570  0.16283806     0.45100
H2672       H  0.84123704  0.95064790  0.19509545     0.36600
C2673       C  0.50194044  0.88411906  0.15369188    -0.27700
C2674       C  0.98899879  0.86057770  0.14596706     0.01900
C2675       C  0.97358580  0.86021400  0.11751470     0.30000
C2676       C  0.97144151  0.88276489  0.09773425    -0.19500
C2677       C  0.98407834  0.90634405  0.10602419    -0.28900
C2678       C  0.49970807  0.90672862  0.13396616     0.44100
C2679       C  0.99400003  0.83608768  0.16533419     0.05200
O2680       O  0.96115372  0.83767786  0.10822099    -0.57400
H2681       H  0.96015594  0.88163767  0.07537577     0.18200
O2682       O  0.51352357  0.92866637  0.14214165    -0.64100
H2683       H  0.51415952  0.88477156  0.17523181     0.16600
C2684       C  0.51897136  0.82680148  0.16964300     0.28900
C2685       C  0.52360065  0.80474165  0.18948229    -0.25000
C2686       C  0.00393990  0.79084598  0.20482290    -0.24300
C2687       C  0.97857232  0.80015238  0.20037930     0.40300
C2688       C  0.97383061  0.82237430  0.18062586    -0.26700
O2689       O  0.53917521  0.83862404  0.15376778    -0.58600
H2690       H  0.54316933  0.79799048  0.19203519     0.16000
O2691       O  0.95824873  0.78846231  0.21607185    -0.60100
H2692       H  0.95434653  0.82942978  0.17811435     0.14400
H2693       H  0.50244156  0.93854483  0.15778027     0.46300
H2694       H  0.54826373  0.84871886  0.17110100     0.41600
H2695       H  0.95602528  0.79832724  0.23702773     0.45100
H2696       H  0.97334409  0.82833937  0.09344613     0.36600
C2697       C  0.97679571  0.60673576  0.16147995    -0.27700
C2698       C  0.99052887  0.62945641  0.15257007     0.01900
C2699       C  0.50523532  0.63130702  0.11921783     0.30000
C2700       C  0.50401738  0.60920093  0.09860114    -0.19500
C2701       C  0.98853595  0.58552763  0.10938016    -0.28900
C2702       C  0.97560468  0.58494202  0.14006859     0.44100
C2703       C  0.99203902  0.65244129  0.17535675     0.05200
O2704       O  0.51978074  0.65244924  0.10964277    -0.57400
H2705       H  0.51383695  0.60988842  0.07495931     0.18200
O2706       O  0.96128335  0.56352402  0.14905517    -0.64100
H2707       H  0.96666396  0.60606209  0.18488624     0.16600
C2708       C  0.98526161  0.67788393  0.16479395     0.28900
C2709       C  0.99046028  0.69977040  0.18475657    -0.25000
C2710       C  0.00189993  0.69681613  0.21585815    -0.24300
C2711       C  0.50810816  0.67235861  0.22592560     0.40300
C2712       C  0.50412359  0.65084879  0.20490259    -0.26700
O2713       O  0.97396207  0.68162123  0.13465641    -0.58600
H2714       H  0.98617331  0.71916347  0.17536464     0.16000
O2715       O  0.51699035  0.66779802  0.25721430    -0.60100
H2716       H  0.50899918  0.63135373  0.21349795     0.14400
H2717       H  0.94418032  0.56648070  0.13915260     0.46300
H2718       H  0.95529093  0.68024275  0.13893421     0.41600
H2719       H  0.50140314  0.66540679  0.27101220     0.45100
H2720       H  0.51061089  0.66032475  0.09067751     0.36600
C2721       C  0.64870193  0.85004702  0.98300378    -0.27700
C2722       C  0.63330129  0.85632934  0.01045329     0.01900
C2723       C  0.63767742  0.84363880  0.04081896     0.30000
C2724       C  0.65692866  0.82467542  0.04324344    -0.19500
C2725       C  0.67209745  0.81836453  0.01575273    -0.28900
C2726       C  0.66801985  0.83116334  0.98552159     0.44100
C2727       C  0.61227367  0.87556492  0.00689336     0.05200
O2728       O  0.62313904  0.84954870  0.06815760    -0.57400
H2729       H  0.65998167  0.81475631  0.06655240     0.18200
O2730       O  0.68263512  0.82509248  0.95830860    -0.64100
H2731       H  0.64535577  0.85937844  0.95939159     0.16600
C2732       C  0.61701291  0.90097966  0.99483650     0.28900
C2733       C  0.59680408  0.91882541  0.99177755    -0.25000
C2734       C  0.57156979  0.91171035  0.00039087    -0.24300
C2735       C  0.56688779  0.88608160  0.01219848     0.40300
C2736       C  0.58716317  0.86831579  0.01537116    -0.26700
O2737       O  0.64151238  0.90891848  0.98746240    -0.58600
H2738       H  0.60101504  0.93838788  0.98279626     0.16000
O2739       O  0.54284457  0.87850548  0.02217015    -0.60100
H2740       H  0.58324338  0.84873340  0.02450419     0.14400
H2741       H  0.67365131  0.81024175  0.94752612     0.46300
H2742       H  0.64253700  0.90903563  0.96299258     0.41600
H2743       H  0.53565246  0.86869326  0.00317147     0.45100
H2744       H  0.63341266  0.86246748  0.08079250     0.36600
C2745       C  0.88540134  0.86641994  0.98927301    -0.27700
C2746       C  0.86267617  0.87174851  0.00648104     0.01900
C2747       C  0.85851366  0.89672098  0.02017315     0.30000
C2748       C  0.87725316  0.91610518  0.01697086    -0.19500
C2749       C  0.90033578  0.91079696  0.00027289    -0.28900
C2750       C  0.90432174  0.88569215  0.98628412     0.44100
C2751       C  0.84315047  0.85122773  0.00983916     0.05200
O2752       O  0.83630735  0.90218682  0.03709754    -0.57400
H2753       H  0.87391833  0.93515445  0.02815527     0.18200
O2754       O  0.92624511  0.88004882  0.96882647    -0.64100
H2755       H  0.88850628  0.84723614  0.97834243     0.16600
C2756       C  0.82567011  0.84656647  0.98423259     0.28900
C2757       C  0.80624806  0.82801911  0.98852078    -0.25000
C2758       C  0.80441537  0.81371948  0.01799879    -0.24300
C2759       C  0.82236785  0.81787989  0.04326725     0.40300
C2760       C  0.84150358  0.83681455  0.03921259    -0.26700
O2761       O  0.82704841  0.86056043  0.95536610    -0.58600
H2762       H  0.79259574  0.82470349  0.96886876     0.16000
O2763       O  0.82089762  0.80401293  0.07221815    -0.60100
H2764       H  0.85500354  0.84036123  0.05898268     0.14400
H2765       H  0.93736285  0.87036973  0.98443872     0.46300
H2766       H  0.83913334  0.85062093  0.94109436     0.41600
H2767       H  0.83222922  0.78859168  0.06887795     0.45100
H2768       H  0.82454652  0.90967133  0.02040116     0.36600
C2769       C  0.88310004  0.62783804  0.00772737    -0.27700
C2770       C  0.85803031  0.61910350  0.01364074     0.01900
C2771       C  0.85306221  0.59204663  0.01528382     0.30000
C2772       C  0.87308850  0.57410855  0.01111526    -0.19500
C2773       C  0.89845226  0.58269434  0.00560692    -0.28900
C2774       C  0.90323841  0.60997271  0.00373428     0.44100
C2775       C  0.83728270  0.63849919  0.01819449     0.05200
O2776       O  0.82877745  0.58294195  0.02155568    -0.57400
H2777       H  0.86868837  0.55337462  0.01285648     0.18200
O2778       O  0.92748474  0.61953035  0.99847044    -0.64100
H2779       H  0.88707405  0.64867773  0.00614416     0.16600
C2780       C  0.83851585  0.65725235  0.04370483     0.28900
C2781       C  0.81940185  0.67636063  0.04666451    -0.25000
C2782       C  0.79913173  0.67722407  0.02410569    -0.24300
C2783       C  0.79771229  0.65826466  0.99881555     0.40300
C2784       C  0.81661415  0.63890387  0.99617245    -0.26700
O2785       O  0.85806200  0.65663190  0.06623191    -0.58600
H2786       H  0.82056290  0.69079889  0.06628801     0.16000
O2787       O  0.77815109  0.65880320  0.97630701    -0.60100
H2788       H  0.81555719  0.62463328  0.97634355     0.14400
H2789       H  0.92883037  0.62214262  0.97424809     0.46300
H2790       H  0.86987876  0.67094025  0.05956020     0.41600
H2791       H  0.78408003  0.67083530  0.95861687     0.45100
H2792       H  0.82705418  0.58304401  0.04596111     0.36600
C2793       C  0.58555184  0.62992186  0.99730288    -0.27700
C2794       C  0.60971918  0.62282608  0.00921563     0.01900
C2795       C  0.61441973  0.59670678  0.01838256     0.30000
C2796       C  0.59496356  0.57796371  0.01559834    -0.19500
C2797       C  0.57058342  0.58488754  0.00364535    -0.28900
C2798       C  0.56600360  0.61124622  0.99451460     0.44100
C2799       C  0.62979361  0.64298845  0.01245655     0.05200
O2800       O  0.63767702  0.58957005  0.03122747    -0.57400
H2801       H  0.59892527  0.55801373  0.02329110     0.18200
O2802       O  0.54280971  0.61886302  0.98191130    -0.64100
H2803       H  0.58186495  0.65004171  0.99007673     0.16600
C2804       C  0.65080932  0.64358475  0.99059207     0.28900
C2805       C  0.66959375  0.66295391  0.99407690    -0.25000
C2806       C  0.66764847  0.68186836  0.01923638    -0.24300
C2807       C  0.64655310  0.68131012  0.04100660     0.40300
C2808       C  0.62774915  0.66192916  0.03748840    -0.26700
O2809       O  0.65310838  0.62533674  0.96579851    -0.58600
H2810       H  0.68572674  0.66329120  0.97711972     0.16000
O2811       O  0.64462639  0.69916367  0.06630266    -0.60100
H2812       H  0.61163038  0.66152986  0.05446174     0.14400
H2813       H  0.53346352  0.62696369  0.00073664     0.46300
H2814       H  0.64358355  0.63281847  0.94688544     0.41600
H2815       H  0.63165546  0.71211401  0.05897088     0.45100
H2816       H  0.64741318  0.58196082  0.01241117     0.36600
C2817       C  0.85181557  0.50756032  0.88063777    -0.27700
C2818       C  0.85657693  0.00091694  0.84482910     0.01900
C2819       C  0.88091669  0.99197577  0.83453920     0.30000
C2820       C  0.90177799  0.99254538  0.85658647    -0.19500
C2821       C  0.89738941  0.50124896  0.89173707    -0.28900
C2822       C  0.87248484  0.50865979  0.90239867     0.44100
C2823       C  0.83326527  0.99800131  0.82393593     0.05200
O2824       O  0.88435734  0.98198751  0.80335853    -0.57400
H2825       H  0.92008716  0.98474702  0.84852467     0.18200
O2826       O  0.86789036  0.51688760  0.93417453    -0.64100
H2827       H  0.83289337  0.51286050  0.88958631     0.16600
C2828       C  0.81322584  0.98134006  0.83416802     0.28900
C2829       C  0.78997902  0.98086664  0.81694385    -0.25000
C2830       C  0.78600928  0.99699506  0.78930862    -0.24300
C2831       C  0.80594723  0.51393794  0.78118535     0.40300
C2832       C  0.82913086  0.51362398  0.79877132    -0.26700
O2833       O  0.81630759  0.96527310  0.86101445    -0.58600
H2834       H  0.77484347  0.96797802  0.82551892     0.16000
O2835       O  0.80304505  0.53142068  0.75576554    -0.60100
H2836       H  0.84431782  0.52703967  0.79178184     0.14400
H2837       H  0.87192889  0.53591395  0.93422826     0.46300
H2838       H  0.80755754  0.97442161  0.87954938     0.41600
H2839       H  0.79594668  0.54751352  0.76614740     0.45100
H2840       H  0.87938200  0.96324154  0.80496079     0.36600
C2841       C  0.59385627  0.50373971  0.83607311    -0.27700
C2842       C  0.61809025  0.00365249  0.84886031     0.01900
C2843       C  0.62100199  0.00261714  0.88331737     0.30000
C2844       C  0.59949939  0.00081738  0.90386050    -0.19500
C2845       C  0.57426486  0.50079144  0.89087974    -0.28900
C2846       C  0.57180764  0.50267263  0.85622528     0.44100
C2847       C  0.64112650  0.00380186  0.82693248     0.05200
O2848       O  0.64490979  0.00278604  0.89729332    -0.57400
H2849       H  0.60271995  0.00018463  0.93025381     0.18200
O2850       O  0.54812984  0.50306071  0.84169022    -0.64100
H2851       H  0.59165004  0.50508359  0.80953881     0.16600
C2852       C  0.64437957  0.98434804  0.80270150     0.28900
C2853       C  0.66726416  0.98275267  0.78471026    -0.25000
C2854       C  0.68787636  0.00020552  0.79041432    -0.24300
C2855       C  0.68411565  0.52038854  0.81448272     0.40300
C2856       C  0.66134268  0.52148262  0.83309290    -0.26700
O2857       O  0.62575823  0.96578578  0.79754620    -0.58600
H2858       H  0.66797604  0.96773655  0.76605286     0.16000
O2859       O  0.70267722  0.53893657  0.82001712    -0.60100
H2860       H  0.65897644  0.53687878  0.85135907     0.14400
H2861       H  0.54488154  0.52175452  0.83637274     0.46300
H2862       H  0.61735243  0.97089964  0.77659709     0.41600
H2863       H  0.69723250  0.55456414  0.80727554     0.45100
H2864       H  0.65081481  0.98428692  0.89644954     0.36600
C2865       C  0.49627867  0.61030141  0.84036792    -0.27700
C2866       C  0.98459555  0.63463251  0.85309223     0.01900
C2867       C  0.98029399  0.63716412  0.88716580     0.30000
C2868       C  0.97872904  0.61479181  0.90705747    -0.19500
C2869       C  0.98190140  0.58931716  0.89377889    -0.28900
C2870       C  0.49497725  0.58789185  0.86058989     0.44100
C2871       C  0.98937113  0.65825998  0.83253790     0.05200
O2872       O  0.97757395  0.66153898  0.90125238    -0.57400
H2873       H  0.97558242  0.61765780  0.93328372     0.18200
O2874       O  0.50429484  0.56452410  0.84871461    -0.64100
H2875       H  0.50443684  0.60865058  0.81578880     0.16600
C2876       C  0.51426513  0.67411371  0.83629167     0.28900
C2877       C  0.51859755  0.69612252  0.81636482    -0.25000
C2878       C  0.99958472  0.70216754  0.79172823    -0.24300
C2879       C  0.97558582  0.68942023  0.79038733     0.40300
C2880       C  0.97069327  0.66750612  0.81057377    -0.26700
O2881       O  0.53226343  0.66706914  0.85921179    -0.58600
H2882       H  0.53617177  0.70717788  0.81941529     0.16000
O2883       O  0.95712083  0.69757475  0.76870871    -0.60100
H2884       H  0.95241213  0.65752976  0.80883970     0.14400
H2885       H  0.52246115  0.56398603  0.85577796     0.46300
H2886       H  0.52865571  0.67823097  0.87877903     0.41600
H2887       H  0.96144168  0.68891345  0.74743529     0.45100
H2888       H  0.99392192  0.66490803  0.91290619     0.36600
C2889       C  0.49448846  0.81500410  0.83830548    -0.27700
C2890       C  0.99148386  0.83902876  0.82549595     0.01900
C2891       C  0.99224593  0.84107383  0.79066085     0.30000
C2892       C  0.99694407  0.81878130  0.77112256    -0.19500
C2893       C  0.00016813  0.79399920  0.78557662    -0.28900
C2894       C  0.49858646  0.79274435  0.81850071     0.44100
C2895       C  0.98858965  0.86281514  0.84715902     0.05200
O2896       O  0.98858802  0.86477318  0.77537276    -0.57400
H2897       H  0.99812460  0.82083407  0.74451581     0.18200
O2898       O  0.50251371  0.76885007  0.83320847    -0.64100
H2899       H  0.49516622  0.81274754  0.86485514     0.16600
C2900       C  0.97227536  0.86271192  0.87510897     0.28900
C2901       C  0.97122113  0.88462552  0.89617038    -0.25000
C2902       C  0.98594803  0.90719227  0.88990053    -0.24300
C2903       C  0.50075251  0.90886752  0.85976283     0.40300
C2904       C  0.50200905  0.88679466  0.83893284    -0.26700
O2905       O  0.95664245  0.84162156  0.88147625    -0.58600
H2906       H  0.95874300  0.88395668  0.91759229     0.16000
O2907       O  0.51514254  0.93059800  0.85223699    -0.60100
H2908       H  0.51466116  0.88748431  0.81767667     0.14400
H2909       H  0.52139047  0.76689410  0.83456888     0.46300
H2910       H  0.96317272  0.83376219  0.90220038     0.41600
H2911       H  0.53175949  0.92787747  0.86352435     0.45100
H2912       H  0.96975037  0.86654407  0.77311675     0.36600
C2913       C  0.89361057  0.76209581  0.61628604    -0.27700
C2914       C  0.89147023  0.75152721  0.64805833     0.01900
C2915       C  0.86725416  0.74320702  0.65951865     0.30000
C2916       C  0.84590817  0.74405428  0.63840582    -0.19500
C2917       C  0.84843115  0.75318005  0.60574273    -0.28900
C2918       C  0.87242834  0.76329625  0.59539836     0.44100
C2919       C  0.91500923  0.74857112  0.66818559     0.05200
O2920       O  0.86445335  0.73344938  0.69087461    -0.57400
H2921       H  0.82766705  0.73659505  0.64717420     0.18200
O2922       O  0.87559760  0.77413556  0.56464190    -0.64100
H2923       H  0.91196878  0.76924669  0.60747548     0.16600
C2924       C  0.93517074  0.73232297  0.65721852     0.28900
C2925       C  0.95806588  0.73097889  0.67510781    -0.25000
C2926       C  0.96163267  0.74617267  0.70376564    -0.24300
C2927       C  0.94134865  0.76250412  0.71464298     0.40300
C2928       C  0.91819062  0.76332264  0.69713501    -0.26700
O2929       O  0.93247104  0.71736958  0.62922098    -0.58600
H2930       H  0.97314923  0.71807272  0.66635760     0.16000
O2931       O  0.94424461  0.77868705  0.74144694    -0.60100
H2932       H  0.90301161  0.77628560  0.70549083     0.14400
H2933       H  0.87015951  0.79270016  0.56706042     0.46300
H2934       H  0.94176325  0.72707143  0.61164410     0.41600
H2935       H  0.95198072  0.79500118  0.73254157     0.45100
H2936       H  0.86754018  0.71430612  0.68877555     0.36600
C2937       C  0.65406601  0.75228765  0.66073545    -0.27700
C2938       C  0.62931833  0.74928037  0.64762784     0.01900
C2939       C  0.62653234  0.74644681  0.61334308     0.30000
C2940       C  0.64803246  0.74678903  0.59267577    -0.19500
C2941       C  0.67300798  0.74988671  0.60534100    -0.28900
C2942       C  0.67580010  0.75285287  0.63991154     0.44100
C2943       C  0.60623917  0.74907080  0.66937094     0.05200
O2944       O  0.60273517  0.74309859  0.59970274    -0.57400
H2945       H  0.64491973  0.74438977  0.56641454     0.18200
O2946       O  0.69950780  0.75639326  0.65369071    -0.64100
H2947       H  0.65649780  0.75458759  0.68714387     0.16600
C2948       C  0.60219845  0.72893174  0.69243012     0.28900
C2949       C  0.57930390  0.72790691  0.71074726    -0.25000
C2950       C  0.55976792  0.74693247  0.70668011    -0.24300
C2951       C  0.56420372  0.76719245  0.68341555     0.40300
C2952       C  0.58709998  0.76807044  0.66511337    -0.26700
O2953       O  0.61993495  0.70925897  0.69593779    -0.58600
H2954       H  0.57734736  0.71174143  0.72760882     0.16000
O2955       O  0.54584596  0.78590465  0.67764593    -0.60100
H2956       H  0.58980116  0.78356372  0.64712454     0.14400
H2957       H  0.70198538  0.77568461  0.65452850     0.46300
H2958       H  0.63024440  0.71431333  0.71545895     0.41600
H2959       H  0.55213234  0.80204208  0.68869455     0.45100
H2960       H  0.59956048  0.72391168  0.60039621     0.36600
C2961       C  0.74451555  0.63822206  0.65598712    -0.27700
C2962       C  0.75816448  0.61500862  0.64879981     0.01900
C2963       C  0.77411850  0.61461701  0.62052483     0.30000
C2964       C  0.77517465  0.63640341  0.59938226    -0.19500
C2965       C  0.76113009  0.65937674  0.60624141    -0.28900
C2966       C  0.74626275  0.66036126  0.63538483     0.44100
C2967       C  0.75485306  0.59110729  0.67003621     0.05200
O2968       O  0.78866671  0.59294601  0.61309264    -0.57400
H2969       H  0.78706134  0.63530351  0.57739210     0.18200
O2970       O  0.73198937  0.68221008  0.64284969    -0.64100
H2971       H  0.73177076  0.63901320  0.67714533     0.16600
C2972       C  0.75570687  0.59268477  0.70485961     0.28900
C2973       C  0.75121678  0.57024305  0.72416317    -0.25000
C2974       C  0.74605690  0.54588742  0.70942844    -0.24300
C2975       C  0.74575135  0.54400311  0.67480844     0.40300
C2976       C  0.74989366  0.56647889  0.65540948    -0.26700
O2977       O  0.76162040  0.61591799  0.72024344    -0.58600
H2978       H  0.75154885  0.57190558  0.75084984     0.16000
O2979       O  0.73995317  0.52063174  0.65973309    -0.60100
H2980       H  0.74854670  0.56475293  0.62880750     0.14400
H2981       H  0.74254946  0.69236005  0.65866006     0.46300
H2982       H  0.74559247  0.62163741  0.73139568     0.41600
H2983       H  0.75660876  0.51146478  0.65704699     0.45100
H2984       H  0.80412510  0.59448062  0.62711974     0.36600
C2985       C  0.72855940  0.91704734  0.66978371    -0.27700
C2986       C  0.75312996  0.90602239  0.66882896     0.01900
C2987       C  0.77324135  0.91862964  0.68568777     0.30000
C2988       C  0.76839305  0.94143397  0.70424526    -0.19500
C2989       C  0.74357410  0.95198697  0.70616267    -0.28900
C2990       C  0.72373700  0.93994122  0.68782040     0.44100
C2991       C  0.75760156  0.88200041  0.64890689     0.05200
O2992       O  0.79758765  0.90851825  0.68462429    -0.57400
H2993       H  0.78387629  0.95030059  0.71805831     0.18200
O2994       O  0.69948022  0.95034683  0.68727054    -0.64100
H2995       H  0.71307969  0.90800358  0.65610731     0.16600
C2996       C  0.74466818  0.85836031  0.65600577     0.28900
C2997       C  0.74766237  0.83652033  0.63512911    -0.25000
C2998       C  0.76300295  0.83813416  0.60659399    -0.24300
C2999       C  0.77654489  0.86163154  0.60020020     0.40300
C3000       C  0.77379323  0.88323425  0.62127545    -0.26700
O3001       O  0.72917968  0.85643819  0.68337838    -0.58600
H3002       H  0.73711109  0.81870019  0.64050897     0.16000
O3003       O  0.79215864  0.86392052  0.57298669    -0.60100
H3004       H  0.78378134  0.90131230  0.61548534     0.14400
H3005       H  0.70044300  0.96530091  0.67165608     0.46300
H3006       H  0.71144298  0.85833417  0.67502339     0.41600
H3007       H  0.80879663  0.85622685  0.57970332     0.45100
H3008       H  0.79882552  0.89698392  0.70426142     0.36600
C3009       C  0.85774173  0.61388363  0.48611575    -0.27700
C3010       C  0.88351219  0.62144808  0.48475099     0.01900
C3011       C  0.88994965  0.64814635  0.48622495     0.30000
C3012       C  0.87068966  0.66703842  0.48913847    -0.19500
C3013       C  0.84468664  0.65976409  0.49093754    -0.28900
C3014       C  0.83832788  0.63273911  0.48920886     0.44100
C3015       C  0.90376172  0.60139910  0.48235787     0.05200
O3016       O  0.91505428  0.65595794  0.48384416    -0.57400
H3017       H  0.87630295  0.68749575  0.48994947     0.18200
O3018       O  0.81336198  0.62439029  0.49101366    -0.64100
H3019       H  0.85269354  0.59326092  0.48509646     0.16600
C3020       C  0.92039638  0.59706413  0.50903586     0.28900
C3021       C  0.94015428  0.57871665  0.50607679    -0.25000
C3022       C  0.94343294  0.56447849  0.47673564    -0.24300
C3023       C  0.92679772  0.56869437  0.45005945     0.40300
C3024       C  0.90698772  0.58709045  0.45299959    -0.26700
O3025       O  0.91750145  0.61076116  0.53801240    -0.58600
H3026       H  0.95287397  0.57542324  0.52673951     0.16000
O3027       O  0.93018901  0.55539557  0.42088614    -0.60100
H3028       H  0.89436525  0.59048929  0.43226583     0.14400
H3029       H  0.80797080  0.62184128  0.46776714     0.46300
H3030       H  0.90528742  0.60027564  0.55140658     0.41600
H3031       H  0.91969268  0.53925469  0.42310204     0.45100
H3032       H  0.92021287  0.66045568  0.50671076     0.36600
C3033       C  0.65948702  0.61960659  0.49031658    -0.27700
C3034       C  0.63426270  0.62847062  0.48665928     0.01900
C3035       C  0.62910731  0.65548487  0.48642429     0.30000
C3036       C  0.64911424  0.67338537  0.48987520    -0.19500
C3037       C  0.67459000  0.66475446  0.49358521    -0.28900
C3038       C  0.67960196  0.63744680  0.49401454     0.44100
C3039       C  0.61327660  0.60936179  0.48419815     0.05200
O3040       O  0.60453563  0.66457030  0.48273516    -0.57400
H3041       H  0.64454514  0.69412284  0.48935869     0.18200
O3042       O  0.70396937  0.62785035  0.49788197    -0.64100
H3043       H  0.66352413  0.59874063  0.49085697     0.16600
C3044       C  0.61208951  0.59165268  0.45758140     0.28900
C3045       C  0.59246342  0.57306478  0.45642457    -0.25000
C3046       C  0.57405373  0.57191451  0.48169770    -0.24300
C3047       C  0.57497317  0.58991321  0.50802409     0.40300
C3048       C  0.59450545  0.60859991  0.50908291    -0.26700
O3049       O  0.62966613  0.59282178  0.43231502    -0.58600
H3050       H  0.59178874  0.55922451  0.43608817     0.16000
O3051       O  0.55713673  0.58906759  0.53299860    -0.60100
H3052       H  0.59534688  0.62218598  0.52968066     0.14400
H3053       H  0.70619514  0.62590121  0.52207044     0.46300
H3054       H  0.64229127  0.57879812  0.43711669     0.41600
H3055       H  0.56426707  0.57672687  0.54950371     0.45100
H3056       H  0.60166025  0.66503339  0.45854513     0.36600
C3057       C  0.60809396  0.90198337  0.53773370    -0.27700
C3058       C  0.62277879  0.89886248  0.50888289     0.01900
C3059       C  0.61749734  0.91425804  0.48090454     0.30000
C3060       C  0.59755881  0.93252436  0.48204882    -0.19500
C3061       C  0.58282608  0.93540515  0.51080112    -0.28900
C3062       C  0.58809208  0.92011041  0.53875162     0.44100
C3063       C  0.64250721  0.87833052  0.50765523     0.05200
O3064       O  0.63070576  0.91040766  0.45189191    -0.57400
H3065       H  0.59325141  0.94412042  0.46035793     0.18200
O3066       O  0.57385979  0.92291045  0.56711344    -0.64100
H3067       H  0.61202056  0.89013188  0.55933243     0.16600
C3068       C  0.66819090  0.88439065  0.50044910     0.28900
C3069       C  0.68627096  0.86430730  0.49824341    -0.25000
C3070       C  0.67912895  0.83800497  0.50342399    -0.24300
C3071       C  0.65335296  0.83215153  0.51153010     0.40300
C3072       C  0.63533623  0.85228043  0.51348051    -0.26700
O3073       O  0.67579401  0.90985609  0.49547904    -0.58600
H3074       H  0.70590446  0.86941592  0.49225798     0.16000
O3075       O  0.64539121  0.80691220  0.51743020    -0.60100
H3076       H  0.61556219  0.84750360  0.51919357     0.14400
H3077       H  0.55898437  0.91100920  0.56429620     0.46300
H3078       H  0.67931909  0.91691294  0.51784949     0.41600
H3079       H  0.64850927  0.80393949  0.54128644     0.45100
H3080       H  0.64145268  0.92630261  0.44899048     0.36600
C3081       C  0.86617086  0.87780526  0.49210094    -0.27700
C3082       C  0.89150890  0.86871454  0.49278138     0.01900
C3083       C  0.89629152  0.84165312  0.49469569     0.30000
C3084       C  0.87583585  0.82405259  0.49655860    -0.19500
C3085       C  0.85025034  0.83297142  0.49613408    -0.28900
C3086       C  0.84560860  0.86024907  0.49352369     0.44100
C3087       C  0.91275064  0.88777923  0.49306945     0.05200
O3088       O  0.92092520  0.83222639  0.49472877    -0.57400
H3089       H  0.88017297  0.80330271  0.49819906     0.18200
O3090       O  0.82116465  0.87012893  0.49271269    -0.64100
H3091       H  0.86230822  0.89868460  0.49091159     0.16600
C3092       C  0.91586746  0.90599178  0.46727515     0.28900
C3093       C  0.93484865  0.92526367  0.46944502    -0.25000
C3094       C  0.95080852  0.92653632  0.49713852    -0.24300
C3095       C  0.94825867  0.90782371  0.52242524     0.40300
C3096       C  0.92929313  0.88856475  0.52027285    -0.26700
O3097       O  0.90084002  0.90465308  0.43960992    -0.58600
H3098       H  0.93700899  0.93940661  0.44966251     0.16000
O3099       O  0.96405011  0.90840913  0.54939832    -0.60100
H3100       H  0.92704338  0.87461883  0.54025983     0.14400
H3101       H  0.81671684  0.87098121  0.46894157     0.46300
H3102       H  0.88806902  0.91894502  0.44218776     0.41600
H3103       H  0.95542745  0.92023871  0.56545965     0.45100
H3104       H  0.92531604  0.82938061  0.47113387     0.36600
C3105       C  0.60617377  0.74947286  0.29562601    -0.27700
C3106       C  0.60618928  0.74968192  0.33028204     0.01900
C3107       C  0.58254117  0.74864264  0.34707159     0.30000
C3108       C  0.55948012  0.74833499  0.32949013    -0.19500
C3109       C  0.55908063  0.74882224  0.29456389    -0.28900
C3110       C  0.58305430  0.74874394  0.27787472     0.44100
C3111       C  0.63067986  0.75139478  0.34910077     0.05200
O3112       O  0.58170051  0.74767189  0.38093836    -0.57400
H3113       H  0.54221905  0.74717743  0.34403016     0.18200
O3114       O  0.58410342  0.74838725  0.24401240    -0.64100
H3115       H  0.62416312  0.75017343  0.28218840     0.16600
C3116       C  0.65046237  0.73274682  0.34498165     0.28900
C3117       C  0.67242416  0.73382676  0.36501126    -0.25000
C3118       C  0.67481339  0.75314277  0.38961143    -0.24300
C3119       C  0.65538193  0.77218231  0.39303426     0.40300
C3120       C  0.63370374  0.77131012  0.37281574    -0.26700
O3121       O  0.64764667  0.71230758  0.32321402    -0.58600
H3122       H  0.68698863  0.71878364  0.36242707     0.16000
O3123       O  0.65712604  0.79142637  0.41667628    -0.60100
H3124       H  0.61887280  0.78598597  0.37614377     0.14400
H3125       H  0.58797307  0.72992214  0.23798505     0.46300
H3126       H  0.65797635  0.71724251  0.30355488     0.41600
H3127       H  0.66756710  0.80551534  0.40640940     0.45100
H3128       H  0.58474828  0.72900178  0.38660724     0.36600
C3129       C  0.86627795  0.75601333  0.33286907    -0.27700
C3130       C  0.89130534  0.75324367  0.34486987     0.01900
C3131       C  0.89509677  0.74902244  0.37875407     0.30000
C3132       C  0.87415645  0.74764593  0.40019912    -0.19500
C3133       C  0.84887906  0.75054706  0.38865281    -0.28900
C3134       C  0.84510707  0.75482114  0.35445109     0.44100
C3135       C  0.91372816  0.75453577  0.32241503     0.05200
O3136       O  0.91934719  0.74623799  0.39123120    -0.57400
H3137       H  0.87793842  0.74432237  0.42613949     0.18200
O3138       O  0.82102630  0.75866496  0.34192269    -0.64100
H3139       H  0.86318097  0.75942562  0.30678279     0.16600
C3140       C  0.91871716  0.73434023  0.29948927     0.28900
C3141       C  0.94227932  0.73354248  0.28266688    -0.25000
C3142       C  0.96103651  0.75266473  0.28866512    -0.24300
C3143       C  0.95535715  0.77375020  0.31008561     0.40300
C3144       C  0.93188831  0.77451098  0.32684097    -0.26700
O3145       O  0.90155370  0.71423709  0.29536788    -0.58600
H3146       H  0.94641792  0.71724724  0.26624213     0.16000
O3147       O  0.97295607  0.79324976  0.31568621    -0.60100
H3148       H  0.92819580  0.79021889  0.34431951     0.14400
H3149       H  0.81590620  0.74143098  0.33261277     0.46300
H3150       H  0.89120369  0.71928009  0.27590330     0.41600
H3151       H  0.97216029  0.80473630  0.29597494     0.45100
H3152       H  0.92352006  0.72735617  0.38853206     0.36600
C3153       C  0.75107434  0.86015555  0.33647236    -0.27700
C3154       C  0.75561378  0.88567082  0.34852026     0.01900
C3155       C  0.76312112  0.88861015  0.38166016     0.30000
C3156       C  0.76534988  0.86662047  0.40226304    -0.19500
C3157       C  0.76024483  0.84096865  0.39071652    -0.28900
C3158       C  0.75335832  0.83797890  0.35714091     0.44100
C3159       C  0.75149605  0.90928690  0.32714065     0.05200
O3160       O  0.76814795  0.91305028  0.39435297    -0.57400
H3161       H  0.77097239  0.86986358  0.42766422     0.18200
O3162       O  0.74769245  0.81369000  0.34451441    -0.64100
H3163       H  0.74505952  0.85744407  0.31112547     0.16600
C3164       C  0.76505098  0.91289547  0.29722253     0.28900
C3165       C  0.76091744  0.93553368  0.27797186    -0.25000
C3166       C  0.74303864  0.95465910  0.28785759    -0.24300
C3167       C  0.72950036  0.95105137  0.31765498     0.40300
C3168       C  0.73384953  0.92868651  0.33706670    -0.26700
O3169       O  0.78279260  0.89471040  0.28700131    -0.58600
H3170       H  0.77112414  0.93774050  0.25479155     0.16000
O3171       O  0.71147995  0.96903678  0.32764855    -0.60100
H3172       H  0.72307434  0.92626068  0.35980030     0.14400
H3173       H  0.76393149  0.80732209  0.33450902     0.46300
H3174       H  0.77392712  0.88398069  0.27008510     0.41600
H3175       H  0.72136746  0.98361728  0.33767587     0.45100
H3176       H  0.78630208  0.91661717  0.38854023     0.36600
C3177       C  0.75117020  0.59597756  0.29060889    -0.27700
C3178       C  0.75970907  0.59281022  0.32318062     0.01900
C3179       C  0.76407756  0.56705753  0.33493831     0.30000
C3180       C  0.75832753  0.54516777  0.31511813    -0.19500
C3181       C  0.74826254  0.54841529  0.28335172    -0.28900
C3182       C  0.74568728  0.57414103  0.27071567     0.44100
C3183       C  0.76101049  0.61604967  0.34578142     0.05200
O3184       O  0.77315258  0.56305627  0.36625944    -0.57400
H3185       H  0.76078225  0.52562163  0.32512547     0.18200
O3186       O  0.73721218  0.57821809  0.23911841    -0.64100
H3187       H  0.74757072  0.61544063  0.28096221     0.16600
C3188       C  0.77377521  0.63957992  0.33718392     0.28900
C3189       C  0.77335560  0.66128140  0.35890356    -0.25000
C3190       C  0.76045997  0.65988568  0.38944509    -0.24300
C3191       C  0.74755055  0.63635683  0.39767504     0.40300
C3192       C  0.74783664  0.61498147  0.37601574    -0.26700
O3193       O  0.78768975  0.64111996  0.30841157    -0.58600
H3194       H  0.78369116  0.67895067  0.35221239     0.16000
O3195       O  0.73436582  0.63395288  0.42692432    -0.60100
H3196       H  0.73727618  0.59747454  0.38279689     0.14400
H3197       H  0.75290934  0.57828323  0.22520843     0.46300
H3198       H  0.77772282  0.65286886  0.29377193     0.41600
H3199       H  0.71693928  0.64079707  0.42236327     0.45100
H3200       H  0.79200709  0.56158481  0.36368869     0.36600
loop_ 
_geom_bond_atom_site_label_1 
_geom_bond_atom_site_label_2 
_geom_bond_distance 
_geom_bond_site_symmetry_2 
_ccdc_geom_bond_type 
O1          Zr37   2.478       .  S
O1           C12   1.300       .  A
O2          Zr36   2.470       .  S
O2           C13   1.298       .  A
O3           Zr9   2.435       .  S
O3           C14   1.291       .  A
O4           Zr9   2.430       .  S
O4           C15   1.290       .  A
O5          Zr39   2.428       .  S
O5           C15   1.291       .  A
O6          Zr38   2.438       .  S
O6           C14   1.292       .  A
O7           Zr9   2.426       .  S
O7           C13   1.290       .  A
O8           Zr9   2.419       .  S
O8           C12   1.289       .  A
Zr9          O10   2.337       .  S
Zr9          O11   2.338       .  S
Zr9          O19   2.341       .  S
Zr9          O17   2.335       .  S
O10         Zr36   2.347       .  S
O10         Zr39   2.338       .  S
O11         Zr37   2.357       .  S
O11         Zr38   2.339       .  S
C12         C790   1.489       .  S
C13         C565   1.484       .  S
C14         C613   1.491       .  S
C15         C637   1.484       .  S
H16          O17   0.966       .  S
O17         Zr36   2.353       .  S
O17         Zr38   2.339       .  S
H18          O19   0.966       .  S
O19         Zr37   2.352       .  S
O19         Zr39   2.334       .  S
O20         Zr36   2.463       .  S
O20          C43   1.297       .  A
O21         Zr37   2.487       .  S
O21          C44   1.302       .  A
O22         Zr38   2.435       .  S
O22          C45   1.293       .  A
O23         Zr39   2.423       .  S
O23          C46   1.290       .  A
O24         Zr39   2.433       .  S
O24          C47   1.291       .  A
O25         Zr38   2.436       .  S
O25          C48   1.293       .  A
O26         Zr40   2.426       .  S
O26          C49   1.289       .  A
O27         Zr40   2.429       .  S
O27          C50   1.290       .  A
O28         Zr38   2.435       .  S
O28          C49   1.292       .  A
O29         Zr39   2.426       .  S
O29          C50   1.290       .  A
O30         Zr36   2.463       .  S
O30          C45   1.297       .  A
O31         Zr37   2.470       .  S
O31          C48   1.299       .  A
O32         Zr37   2.469       .  S
O32          C47   1.298       .  A
O33         Zr36   2.473       .  S
O33          C46   1.299       .  A
O34         Zr40   2.430       .  S
O34          C43   1.291       .  A
O35         Zr40   2.423       .  S
O35          C44   1.290       .  A
Zr36         O42   2.353       .  S
Zr36         O54   2.351       .  S
Zr37         O41   2.350       .  S
Zr37         O52   2.354       .  S
Zr38         O42   2.336       .  S
Zr38         O52   2.341       .  S
Zr39         O41   2.333       .  S
Zr39         O54   2.337       .  S
Zr40         O41   2.335       .  S
Zr40         O42   2.330       .  S
Zr40         O54   2.339       .  S
Zr40         O52   2.341       .  S
C43         C598   1.487       .  S
C44         C757   1.505       .  S
C45         C517   1.492       .  S
C46         C541   1.497       .  S
C47         C718   1.485       .  S
C48         C733   1.502       .  S
C49         C685   1.487       .  S
C50         C670   1.475       .  S
H51          O52   0.967       .  S
H53          O54   0.966       .  S
N55          H87   1.038   1_545  S
N55          C59   1.349       .  A
N55         C860   1.349   1_545  A
N56          C64   1.349       .  A
N56        C1663   1.350       .  A
N57          H88   1.039       .  S
N57          C61   1.351   1_565  A
N57         C862   1.352       .  A
N58          C66   1.349       .  A
N58        C1665   1.348       .  A
C59          C67   1.387       .  A
C59          C75   1.409       .  A
C60         N855   1.352       .  A
C60          C76   1.411       .  A
C60          C68   1.386       .  A
C61          C69   1.386       .  A
C61          C78   1.412       .  A
C62         N857   1.350       .  A
C62          C77   1.409       .  A
C62          C70   1.387       .  A
C63        N1656   1.350       .  A
C63          C75   1.410       .  A
C63          C71   1.386       .  A
C64          C78   1.410       .  A
C64          C72   1.386       .  A
C65        N1658   1.350       .  A
C65          C73   1.386       .  A
C65          C76   1.409       .  A
C66          C74   1.385       .  A
C66          C77   1.408       .  A
C67         C868   1.374   1_545  A
C67          H79   1.083       .  S
C68         C867   1.372       .  A
C68          H80   1.082       .  S
C69         C870   1.377   1_545  A
C69          H81   1.082       .  S
C70         C869   1.373       .  A
C70          H82   1.082       .  S
C71        C1672   1.373   1_455  A
C71          H83   1.082       .  S
C72        C1671   1.373       .  A
C72          H84   1.082       .  S
C73        C1674   1.374       .  A
C73          H85   1.082       .  S
C74        C1673   1.375       .  A
C74          H86   1.082       .  S
C75         C646   1.478       .  S
C76         C661   1.479       .  S
C77         C694   1.478       .  S
C78         C622   1.480       .  S
O89        Zr125   2.479       .  S
O89         C100   1.300       .  A
O90        Zr124   2.476       .  S
O90         C101   1.300       .  A
O91       Zr1697   2.435   1_455  S
O91         C102   1.291       .  A
O92         Zr97   2.433       .  S
O92         C103   1.290       .  A
O93        Zr127   2.422       .  S
O93         C103   1.289       .  A
O94        Zr126   2.420       .  S
O94         C102   1.289       .  A
O95         Zr97   2.436   1_554  S
O95         C101   1.292       .  A
O96         Zr97   2.430       .  S
O96         C100   1.291       .  A
Zr97       O1691   2.442       .  S
Zr97         O98   2.337   1_556  S
Zr97        O107   2.346       .  S
Zr97       O1699   2.340       .  S
Zr97       O1705   2.341   1_556  S
O98        Zr124   2.354       .  S
O98        Zr127   2.337   1_554  S
O99        Zr126   2.331       .  S
O99       Zr1697   2.339   1_455  S
O99       Zr1725   2.352   1_455  S
C100        C502   1.484       .  S
C101        C277   1.491       .  S
C102        C334   1.480       .  S
C103        C349   1.476       .  S
H104        O105   0.965       .  S
O105       Zr126   2.337   1_554  S
O105      Zr1697   2.339   1_454  S
O105      Zr1724   2.351   1_455  S
H106        O107   0.967       .  S
O107       Zr125   2.358       .  S
O107       Zr127   2.339       .  S
O108       Zr924   2.481   1_545  S
O108        C131   1.300       .  A
O109       Zr925   2.467   1_545  S
O109        C132   1.298       .  A
O110       Zr126   2.415   1_554  S
O110        C133   1.289       .  A
O111       Zr127   2.423   1_554  S
O111        C134   1.291       .  A
O112       Zr127   2.434       .  S
O112        C935   1.292       .  A
O113       Zr126   2.415       .  S
O113        C936   1.289       .  A
O114      Zr1728   2.430   1_455  S
O114        C137   1.290       .  A
O115       Zr128   2.425   1_554  S
O115        C138   1.289       .  A
O116       Zr926   2.429   1_545  S
O116        C137   1.290       .  A
O117       Zr927   2.432   1_545  S
O117        C138   1.291   1_556  A
O118      Zr1724   2.476   1_455  S
O118        C133   1.299       .  A
O119      Zr2525   2.475   1_455  S
O119        C136   1.299       .  A
O120       Zr925   2.473       .  S
O120        C135   1.299   1_565  A
O121       Zr124   2.465       .  S
O121        C134   1.297       .  A
O122       Zr128   2.424   1_554  S
O122        C131   1.291       .  A
O123       Zr128   2.428       .  S
O123        C132   1.291       .  A
Zr124       O908   2.482       .  S
Zr124      O1718   2.470       .  S
Zr124      O1705   2.352       .  S
Zr124      O2530   2.345       .  S
Zr124       O942   2.353       .  S
Zr125       O909   2.478       .  S
Zr125      O2519   2.475       .  S
Zr125       O920   2.474       .  S
Zr125      O1699   2.353       .  S
Zr125       O929   2.356       .  S
Zr125      O2540   2.353       .  S
Zr126       O916   2.425       .  S
Zr126       O930   2.330   1_556  S
Zr126       O940   2.333       .  S
Zr127       O917   2.427   1_556  S
Zr127       O929   2.334       .  S
Zr127       O942   2.340   1_556  S
Zr128      O1714   2.434       .  S
Zr128       O129   2.335       .  S
Zr128       O142   2.342   1_556  S
Zr128      O1730   2.331   1_556  S
Zr128      O1740   2.339       .  S
O129       Zr925   2.353   1_545  S
O129       Zr927   2.332   1_545  S
O130      Zr2524   2.351   1_445  S
O130       Zr926   2.330   1_544  S
O130      Zr1728   2.335   1_454  S
C131        C301   1.495       .  S
C132        C469   1.490       .  S
C133        C229   1.498       .  S
C134        C262   1.490       .  S
C135        O912   1.293       .  A
C135        C421   1.499       .  S
C136        O913   1.289       .  A
C136        C445   1.498       .  S
C137        C397   1.487   1_556  S
C138        C373   1.483       .  S
H139        O140   0.965       .  S
O140      Zr2525   2.354   1_445  S
O140       Zr926   2.337   1_545  S
O140      Zr1728   2.338   1_455  S
H141        O142   0.967       .  S
O142       Zr924   2.354   1_545  S
O142       Zr927   2.342   1_544  S
N143        H175   1.039       .  S
N143        C148   1.351       .  A
N143        C147   1.352       .  A
N144        C151   1.349       .  A
N144        C152   1.348       .  A
N145        H176   1.037       .  S
N145        C150   1.352       .  A
N145        C149   1.351       .  A
N146        C153   1.348       .  A
N146        C154   1.349       .  A
C147        C155   1.386       .  A
C147        C163   1.410       .  A
C148        C164   1.411       .  A
C148        C156   1.388       .  A
C149        C157   1.387   1_554  A
C149        C166   1.413       .  A
C150        C165   1.413       .  A
C150        C158   1.387   1_554  A
C151        C163   1.407       .  A
C151        C159   1.386       .  A
C152        C166   1.409       .  A
C152        C160   1.387       .  A
C153        C161   1.386       .  A
C153        C164   1.408       .  A
C154        C162   1.387       .  A
C154        C165   1.410       .  A
C155        C156   1.372       .  A
C155        H167   1.082   1_554  S
C156        H168   1.082   1_554  S
C157        C158   1.375       .  A
C157        H169   1.083       .  S
C158        H170   1.082       .  S
C159        C160   1.371       .  A
C159        H171   1.082       .  S
C160        H172   1.082       .  S
C161        C162   1.371       .  A
C161        H173   1.082       .  S
C162        H174   1.082       .  S
C163        C358   1.475       .  S
C164        C382   1.476       .  S
C165        C406   1.477       .  S
C166        C325   1.475       .  S
C177        C178   1.532       .  S
C177        C181   1.538       .  S
C177       C1783   1.548       .  S
C177        C709   1.546       .  S
C178        H185   1.086       .  S
C178       C1779   1.367       .  D
C179        C180   1.550       .  S
C179       C1778   1.367       .  D
C179        C310   1.499       .  S
C180        C184   1.540       .  S
C180        C182   1.550       .  S
C180        H186   1.109       .  S
C181        H187   1.086       .  S
C181       C1782   1.371       .  D
C182       C1781   1.372       .  D
C182        C286   1.500       .  S
C183       C1777   1.547       .  S
C183        H188   1.081       .  S
C183        C184   1.367       .  D
C184        C742   1.492       .  S
C189        C190   1.534       .  S
C189        C195   1.536       .  S
C189        C993   1.544       .  S
C189        C238   1.544       .  S
C190        H197   1.085       .  S
C190        C191   1.369       .  D
C191        C192   1.552       .  S
C191        C766   1.500       .  S
C192        C196   1.546       .  S
C192        C994   1.542       .  S
C192        H198   1.110       .  S
C193        C989   1.539       .  S
C193        H199   1.080       .  S
C193        C194   1.363       .  D
C194        C992   1.544   1_545  S
C194        C781   1.487       .  S
C195        H200   1.086       .  S
C195        C196   1.370       .  D
C196        C253   1.496       .  S
C201        C202   1.535       .  S
C201        C205   1.543       .  S
C201       C1807   1.544       .  S
C201        C550   1.545       .  S
C202        H209   1.086       .  S
C202       C1803   1.364       .  D
C203        C204   1.544       .  S
C203       C1802   1.363       .  D
C203        C493   1.488       .  S
C204        C208   1.546       .  S
C204        C206   1.541       .  S
C204        H210   1.109       .  S
C205        H211   1.081       .  S
C205       C1806   1.365       .  D
C206       C1805   1.365       .  D
C206        C478   1.487       .  S
C207       C1801   1.545       .  S
C207        H212   1.086       .  S
C207        C208   1.373       .  D
C208        C526   1.498       .  S
C213        C219   1.542       .  S
C213        C217   1.541       .  S
C213       C1014   1.535       .  S
C213        C454   1.544       .  S
C214       C1013   1.538   1_545  S
C214        H221   1.086       .  S
C214        C215   1.364       .  D
C215       C1016   1.540   1_545  S
C215        C574   1.482       .  S
C216        C220   1.547       .  S
C216        C218   1.545       .  S
C216       C1015   1.542       .  S
C216        H222   1.110       .  S
C217        H223   1.080       .  S
C217        C218   1.363       .  D
C218        C589   1.494       .  S
C219        H224   1.086       .  S
C219        C220   1.375       .  D
C220        C430   1.498       .  S
C225        C226   1.405       .  A
C225        C230   1.408       .  A
C225        H235   1.083       .  S
C226        C231   1.483       .  S
C226       C1027   1.402       .  A
C227        C228   1.393       .  A
C227       C1026   1.402       .  A
C227        O232   1.372       .  S
C228       C1029   1.411       .  A
C228        H233   1.083       .  S
C229        C230   1.414       .  A
C229       C1028   1.413       .  A
C230        O234   1.371       .  S
C231        C240   1.401       .  A
C231       C1036   1.401       .  A
O232        H248   0.992   1_565  S
O234        H245   0.992       .  S
C236        C237   1.401       .  A
C236       C1031   1.402   1_545  A
C236        O241   1.372       .  S
C237       C1038   1.417       .  A
C237        H242   1.075       .  S
C238        C239   1.419       .  A
C238       C1037   1.416       .  A
C239        C240   1.405       .  A
C239        O243   1.373       .  S
C240        H244   1.084       .  S
O241        H246   0.992       .  S
O243        H247   0.992       .  S
C249        C254   1.401       .  A
C249       C1050   1.403   1_545  A
C249        H259   1.084       .  S
C250        C255   1.484       .  S
C250        C251   1.406       .  A
C250       C1049   1.402       .  A
C251        C252   1.404       .  A
C251        O256   1.371       .  S
C252        C253   1.406       .  A
C252        H257   1.078       .  S
C253       C1054   1.414       .  A
C254       C1053   1.414   1_545  A
C254        O258   1.372       .  S
C255        C260   1.405       .  A
C255       C1064   1.405       .  A
O256        H272   0.992       .  S
O258        H269   0.992       .  S
C260        C261   1.395       .  A
C260        O265   1.372       .  S
C261        C262   1.409       .  A
C261        H266   1.084       .  S
C262       C1063   1.413       .  A
C263        C264   1.409       .  A
C263       C1062   1.414   1_545  A
C263        O267   1.371       .  S
C264       C1055   1.406   1_545  A
C264        H268   1.083       .  S
O265        H270   0.992       .  S
O267        H271   0.992   1_545  S
C273        C278   1.406       .  A
C273       C1874   1.407   1_455  A
C273        H283   1.083       .  S
C274        C279   1.494       .  S
C274        C275   1.409       .  A
C274       C1873   1.407       .  A
C275        C276   1.405       .  A
C275        O280   1.372       .  S
C276        C277   1.409       .  A
C276        H281   1.084       .  S
C277       C1878   1.410       .  A
C278       C1877   1.410   1_455  A
C278        O282   1.371       .  S
C279        C288   1.406       .  A
C279       C1884   1.408       .  A
O280        H296   0.992       .  S
O282        H293   0.992       .  S
C284        C285   1.403       .  A
C284       C1879   1.408   1_455  A
C284        O289   1.372       .  S
C285       C1886   1.408       .  A
C285        H290   1.083       .  S
C286        C287   1.414       .  A
C286       C1885   1.407       .  A
C287        C288   1.408       .  A
C287        O291   1.371       .  S
C288        H292   1.083       .  S
O289        H294   0.992       .  S
O291        H295   0.992       .  S
C297        C298   1.410       .  A
C297        C302   1.409       .  A
C297        H307   1.083       .  S
C298        C303   1.497       .  S
C298       C1899   1.408       .  A
C299        C300   1.404       .  A
C299       C1898   1.409   1_455  A
C299        O304   1.373       .  S
C300       C1901   1.409   1_455  A
C300        H305   1.083       .  S
C301        C302   1.410       .  A
C301       C1900   1.408       .  A
C302        O306   1.371       .  S
C303        C308   1.414       .  A
C303       C1912   1.403       .  A
O304        H320   0.992       .  S
O306        H317   0.992       .  S
C308        C309   1.406       .  A
C308        O313   1.371       .  S
C309        C310   1.404       .  A
C309        H314   1.083       .  S
C310       C1911   1.416       .  A
C311        C312   1.404       .  A
C311       C1910   1.416       .  A
C311        O315   1.372       .  S
C312       C1903   1.404   1_455  A
C312        H316   1.084       .  S
O313        H318   0.991       .  S
O315        H319   0.992       .  S
C321        C322   1.405   1_556  A
C321        C326   1.398       .  A
C321        H331   1.083       .  S
C322        C327   1.477   1_554  S
C322        C323   1.410       .  A
C323        C324   1.393       .  A
C323        O328   1.372       .  S
C324        C325   1.398       .  A
C324        H329   1.084       .  S
C325        C326   1.406   1_554  A
C326        O330   1.372       .  S
C327        C332   1.406       .  A
C327        C336   1.402   1_556  A
O328        H344   0.992       .  S
O330        H341   0.992       .  S
C332        C333   1.398       .  A
C332        O337   1.372       .  S
C333        C334   1.408       .  A
C333        H338   1.084       .  S
C334        C335   1.411   1_556  A
C335        C336   1.395       .  A
C335        O339   1.372       .  S
C336        H340   1.084       .  S
O337        H342   0.992       .  S
O339        H343   0.992   1_554  S
C345        C346   1.401   1_556  A
C345        C350   1.398       .  A
C345        H355   1.084       .  S
C346        C351   1.472       .  S
C346        C347   1.405       .  A
C347        C348   1.395       .  A
C347        O352   1.372       .  S
C348        C349   1.406   1_554  A
C348        H353   1.084       .  S
C349        C350   1.411       .  A
C350        O354   1.372       .  S
C351        C356   1.407   1_554  A
C351        C360   1.403       .  A
O352        H368   0.992       .  S
O354        H365   0.992       .  S
C356        C357   1.397       .  A
C356        O361   1.372       .  S
C357        C358   1.401   1_556  A
C357        H362   1.084       .  S
C358        C359   1.404       .  A
C359        C360   1.395       .  A
C359        O363   1.371       .  S
C360        H364   1.084       .  S
O361        H366   0.992       .  S
O363        H367   0.992       .  S
C369        C370   1.402       .  A
C369        C374   1.398       .  A
C369        H379   1.083       .  S
C370        C375   1.476       .  S
C370        C371   1.405       .  A
C371        C372   1.394   1_554  A
C371        O376   1.372       .  S
C372        C373   1.407   1_556  A
C372        H377   1.083       .  S
C373        C374   1.415       .  A
C374        O378   1.372       .  S
C375        C380   1.409       .  A
C375        C384   1.404   1_554  A
O376        H392   0.992       .  S
O378        H389   0.992   1_554  S
C380        C381   1.398       .  A
C380        O385   1.372       .  S
C381        C382   1.400       .  A
C381        H386   1.084       .  S
C382        C383   1.405   1_554  A
C383        C384   1.394       .  A
C383        O387   1.372       .  S
C384        H388   1.084       .  S
O385        H390   0.992       .  S
O387        H391   0.992       .  S
C393        C394   1.397       .  A
C393        C398   1.396   1_554  A
C393        H403   1.084       .  S
C394        C399   1.470       .  S
C394        C395   1.403       .  A
C395        C396   1.399       .  A
C395        O400   1.372       .  S
C396        C397   1.410       .  A
C396        H401   1.083       .  S
C397        C398   1.416   1_554  A
C398        O402   1.372       .  S
C399        C404   1.406   1_554  A
C399        C408   1.402       .  A
O400        H416   0.992   1_554  S
O402        H413   0.992   1_556  S
C404        C405   1.397       .  A
C404        O409   1.372       .  S
C405        C406   1.402   1_556  A
C405        H410   1.084       .  S
C406        C407   1.405       .  A
C407        C408   1.397       .  A
C407        O411   1.371       .  S
C408        H412   1.084       .  S
O409        H414   0.992       .  S
O411        H415   0.992       .  S
C417        C422   1.401       .  A
C417       C1218   1.401       .  A
C417        H427   1.084       .  S
C418        C423   1.492       .  S
C418        C419   1.410       .  A
C418       C1217   1.401       .  A
C419        C420   1.411       .  A
C419        O424   1.371       .  S
C420       C1221   1.410       .  A
C420        H425   1.083       .  S
C421        C422   1.417       .  A
C421       C1220   1.410   1_545  A
C422        O426   1.372       .  S
C423        C428   1.408       .  A
C423       C1232   1.405       .  A
O424        H440   0.992       .  S
O426        H437   0.992       .  S
C428        C429   1.401       .  A
C428        O433   1.372       .  S
C429        C430   1.405       .  A
C429        H434   1.083       .  S
C430       C1231   1.414       .  A
C431        C432   1.409       .  A
C431       C1230   1.415   1_545  A
C431        O435   1.371       .  S
C432       C1223   1.404   1_545  A
C432        H436   1.083       .  S
O433        H438   0.992       .  S
O435        H439   0.992       .  S
C441        C446   1.408       .  A
C441       C1242   1.408   1_565  A
C441        H451   1.083       .  S
C442        C447   1.492       .  S
C442        C443   1.404       .  A
C442       C1241   1.409       .  A
C443        C444   1.395       .  A
C443        O448   1.372       .  S
C444       C1245   1.412       .  A
C444        H449   1.083       .  S
C445        C446   1.413       .  A
C445       C1244   1.412   1_565  A
C446        O450   1.371       .  S
C447        C452   1.403       .  A
C447       C1256   1.406       .  A
O448        H464   0.992       .  S
O450        H461   0.992   1_565  S
C452        C453   1.401       .  A
C452        O457   1.372       .  S
C453        C454   1.416       .  A
C453        H458   1.075       .  S
C454       C1255   1.416       .  A
C455        C456   1.407       .  A
C455       C1254   1.417   1_545  A
C455        O459   1.372       .  S
C456       C1247   1.406       .  A
C456        H460   1.083       .  S
O457        H462   0.992       .  S
O459        H463   0.992       .  S
C465        C470   1.407       .  A
C465       C2066   1.405       .  A
C465        H475   1.084   1_655  S
C466        C471   1.481       .  S
C466        C467   1.403       .  A
C466       C2065   1.404       .  A
C467        C468   1.399       .  A
C467        O472   1.372       .  S
C468        C469   1.410       .  A
C468        H473   1.084       .  S
C469       C2070   1.412       .  A
C470       C2069   1.414       .  A
C470        O474   1.372   1_655  S
C471        C480   1.403       .  A
C471       C2076   1.406       .  A
O472        H488   0.992       .  S
O474        H485   0.992       .  S
C476        C477   1.398       .  A
C476       C2071   1.404   1_455  A
C476        O481   1.371       .  S
C477       C2078   1.406       .  A
C477        H482   1.083       .  S
C478        C479   1.411       .  A
C478       C2077   1.405       .  A
C479        C480   1.405       .  A
C479        O483   1.371       .  S
C480        H484   1.083       .  S
O481        H486   0.992       .  S
O483        H487   0.992       .  S
C489        C494   1.405       .  A
C489       C2090   1.410       .  A
C489        H499   1.083       .  S
C490        C495   1.499       .  S
C490        C491   1.411       .  A
C490       C2089   1.410       .  A
C491        C492   1.402       .  A
C491        O496   1.371       .  S
C492        C493   1.404       .  A
C492        H497   1.084       .  S
C493       C2094   1.407       .  A
C494       C2093   1.405   1_655  A
C494        O498   1.372   1_655  S
C495        C500   1.411       .  A
C495       C2104   1.410       .  A
O496        H512   0.992       .  S
O498        H509   0.992       .  S
C500        C501   1.405       .  A
C500        O505   1.372       .  S
C501        C502   1.405       .  A
C501        H506   1.084       .  S
C502       C2103   1.408       .  A
C503        C504   1.407       .  A
C503       C2102   1.408   1_455  A
C503        O507   1.372       .  S
C504       C2095   1.410   1_455  A
C504        H508   1.083       .  S
O505        H510   0.992       .  S
O507        H511   0.992       .  S
C513        C514   1.399       .  A
C513        C518   1.398       .  A
C513        H523   1.084       .  S
C514        C519   1.486       .  S
C514        C515   1.410       .  A
C515        C516   1.409       .  A
C515        O520   1.371       .  S
C516        C517   1.409       .  A
C516        H521   1.083       .  S
C517        C518   1.415       .  A
C518        O522   1.372       .  S
C519        C524   1.408       .  A
C519        C528   1.402       .  A
O520        H536   0.992       .  S
O522        H533   0.992       .  S
C524        C525   1.404       .  A
C524        O529   1.372       .  S
C525        C526   1.407       .  A
C525        H530   1.083       .  S
C526        C527   1.414       .  A
C527        C528   1.405       .  A
C527        O531   1.371       .  S
C528        H532   1.083       .  S
O529        H534   0.992       .  S
O531        H535   0.992       .  S
C537        C538   1.407       .  A
C537        C542   1.409       .  A
C537        H547   1.083       .  S
C538        C543   1.490       .  S
C538        C539   1.405       .  A
C539        C540   1.397       .  A
C539        O544   1.372       .  S
C540        C541   1.411       .  A
C540        H545   1.083       .  S
C541        C542   1.414       .  A
C542        O546   1.371       .  S
C543        C548   1.403       .  A
C543        C552   1.403       .  A
O544        H560   0.992       .  S
O546        H557   0.992       .  S
C548        C549   1.404       .  A
C548        O553   1.372       .  S
C549        C550   1.417       .  A
C549        H554   1.076       .  S
C550        C551   1.417       .  A
C551        C552   1.405       .  A
C551        O555   1.372       .  S
C552        H556   1.084       .  S
O553        H558   0.992       .  S
O555        H559   0.992       .  S
C561        C562   1.408       .  A
C561        C566   1.404       .  A
C561        H571   1.083       .  S
C562        C567   1.494       .  S
C562        C563   1.410       .  A
C563        C564   1.402       .  A
C563        O568   1.372       .  S
C564        C565   1.407       .  A
C564        H569   1.084       .  S
C565        C566   1.407       .  A
C566        O570   1.371       .  S
C567        C572   1.411       .  A
C567        C576   1.408       .  A
O568        H584   0.992       .  S
O570        H581   0.992       .  S
C572        C573   1.404       .  A
C572        O577   1.372       .  S
C573        C574   1.402       .  A
C573        H578   1.084       .  S
C574        C575   1.405       .  A
C575        C576   1.404       .  A
C575        O579   1.371       .  S
C576        H580   1.083       .  S
O577        H582   0.992       .  S
O579        H583   0.992       .  S
C585        C586   1.401       .  A
C585        C590   1.399       .  A
C585        H595   1.084       .  S
C586        C591   1.486       .  S
C586        C587   1.409       .  A
C587        C588   1.407       .  A
C587        O592   1.371       .  S
C588        C589   1.405       .  A
C588        H593   1.083       .  S
C589        C590   1.415       .  A
C590        O594   1.372       .  S
C591        C596   1.410       .  A
C591        C600   1.401       .  A
O592        H608   0.992       .  S
O594        H605   0.992       .  S
C596        C597   1.406       .  A
C596        O601   1.372       .  S
C597        C598   1.405       .  A
C597        H602   1.083       .  S
C598        C599   1.415       .  A
C599        C600   1.400       .  A
C599        O603   1.372       .  S
C600        H604   1.084       .  S
O601        H606   0.992       .  S
O603        H607   0.992       .  S
C609        C610   1.399       .  A
C609        C614   1.400       .  A
C609        H619   1.084       .  S
C610        C615   1.474       .  S
C610        C611   1.403       .  A
C611        C612   1.399       .  A
C611        O616   1.372       .  S
C612        C613   1.409       .  A
C612        H617   1.083       .  S
C613        C614   1.418       .  A
C614        O618   1.372       .  S
C615        C620   1.407       .  A
C615        C624   1.402       .  A
O616        H632   0.992       .  S
O618        H629   0.992       .  S
C620        C621   1.400       .  A
C620        O625   1.371       .  S
C621        C622   1.402       .  A
C621        H626   1.084       .  S
C622        C623   1.406       .  A
C623        C624   1.399       .  A
C623        O627   1.371       .  S
C624        H628   1.084       .  S
O625        H630   0.991       .  S
O627        H631   0.992       .  S
C633        C634   1.399       .  A
C633        C638   1.397       .  A
C633        H643   1.084       .  S
C634        C639   1.469       .  S
C634        C635   1.403       .  A
C635        C636   1.396       .  A
C635        O640   1.372       .  S
C636        C637   1.409       .  A
C636        H641   1.083       .  S
C637        C638   1.416       .  A
C638        O642   1.372       .  S
C639        C644   1.406       .  A
C639        C648   1.401       .  A
O640        H656   0.992       .  S
O642        H653   0.992       .  S
C644        C645   1.398       .  A
C644        O649   1.372       .  S
C645        C646   1.403       .  A
C645        H650   1.084       .  S
C646        C647   1.405       .  A
C647        C648   1.395       .  A
C647        O651   1.371       .  S
C648        H652   1.084       .  S
O649        H654   0.992       .  S
O651        H655   0.992       .  S
C657        C658   1.402       .  A
C657        C662   1.395       .  A
C657        H667   1.084       .  S
C658        C663   1.475       .  S
C658        C659   1.409       .  A
C659        C660   1.401       .  A
C659        O664   1.373       .  S
C660        C661   1.401       .  A
C660        H665   1.084       .  S
C661        C662   1.405       .  A
C662        O666   1.371       .  S
C663        C668   1.407       .  A
C663        C672   1.402       .  A
O664        H680   0.992       .  S
O666        H677   0.992       .  S
C668        C669   1.397       .  A
C668        O673   1.371       .  S
C669        C670   1.406       .  A
C669        H674   1.084       .  S
C670        C671   1.411       .  A
C671        C672   1.396       .  A
C671        O675   1.372       .  S
C672        H676   1.084       .  S
O673        H678   0.992       .  S
O675        H679   0.992       .  S
C681        C682   1.401       .  A
C681        C686   1.398       .  A
C681        H691   1.084       .  S
C682        C687   1.475       .  S
C682        C683   1.404       .  A
C683        C684   1.397       .  A
C683        O688   1.372       .  S
C684        C685   1.408       .  A
C684        H689   1.083       .  S
C685        C686   1.417       .  A
C686        O690   1.372       .  S
C687        C692   1.407       .  A
C687        C696   1.404       .  A
O688        H704   0.992       .  S
O690        H701   0.992       .  S
C692        C693   1.397       .  A
C692        O697   1.372       .  S
C693        C694   1.401       .  A
C693        H698   1.084       .  S
C694        C695   1.406       .  A
C695        C696   1.399       .  A
C695        O699   1.371       .  S
C696        H700   1.084       .  S
O697        H702   0.992       .  S
O699        H703   0.992       .  S
C705        C706   1.403       .  A
C705        C710   1.407       .  A
C705        H715   1.083       .  S
C706        C711   1.495       .  S
C706        C707   1.408       .  A
C707        C708   1.402       .  A
C707        O712   1.372       .  S
C708        C709   1.413       .  A
C708        H713   1.076       .  S
C709        C710   1.420       .  A
C710        O714   1.372       .  S
C711        C716   1.413       .  A
C711        C720   1.405       .  A
O712        H728   0.992       .  S
O714        H725   0.992       .  S
C716        C717   1.409       .  A
C716        O721   1.371       .  S
C717        C718   1.405       .  A
C717        H722   1.084       .  S
C718        C719   1.410       .  A
C719        C720   1.400       .  A
C719        O723   1.372       .  S
C720        H724   1.084       .  S
O721        H726   0.992       .  S
O723        H727   0.992       .  S
C729        C730   1.406       .  A
C729        C734   1.410       .  A
C729        H739   1.083       .  S
C730        C735   1.495       .  S
C730        C731   1.409       .  A
C731        C732   1.399       .  A
C731        O736   1.372       .  S
C732        C733   1.410       .  A
C732        H737   1.083       .  S
C733        C734   1.417       .  A
C734        O738   1.371       .  S
C735        C740   1.412       .  A
C735        C744   1.405       .  A
O736        H752   0.992       .  S
O738        H749   0.992       .  S
C740        C741   1.408       .  A
C740        O745   1.371       .  S
C741        C742   1.405       .  A
C741        H746   1.083       .  S
C742        C743   1.411       .  A
C743        C744   1.400       .  A
C743        O747   1.372       .  S
C744        H748   1.084       .  S
O745        H750   0.992       .  S
O747        H751   0.991       .  S
C753        C754   1.406       .  A
C753        C758   1.411       .  A
C753        H763   1.083       .  S
C754        C759   1.489       .  S
C754        C755   1.403       .  A
C755        C756   1.400       .  A
C755        O760   1.372       .  S
C756        C757   1.414       .  A
C756        H761   1.083       .  S
C757        C758   1.416       .  A
C758        O762   1.371       .  S
C759        C764   1.407       .  A
C759        C768   1.402       .  A
O760        H776   0.992       .  S
O762        H773   0.992       .  S
C764        C765   1.407       .  A
C764        O769   1.371       .  S
C765        C766   1.406       .  A
C765        H770   1.078       .  S
C766        C767   1.415       .  A
C767        C768   1.402       .  A
C767        O771   1.372       .  S
C768        H772   1.084       .  S
O769        H774   0.992       .  S
O771        H775   0.992       .  S
C777        C778   1.403       .  A
C777        C782   1.398       .  A
C777        H787   1.082       .  S
C778        C783   1.497       .  S
C778        C779   1.417       .  A
C779        C780   1.406       .  A
C779        O784   1.371       .  S
C780        C781   1.401       .  A
C780        H785   1.084       .  S
C781        C782   1.411       .  A
C782        O786   1.372       .  S
C783        C788   1.415       .  A
C783        C792   1.403       .  A
O784        H800   0.991       .  S
O786        H797   0.992       .  S
C788        C789   1.408       .  A
C788        O793   1.372       .  S
C789        C790   1.404       .  A
C789        H794   1.083       .  S
C790        C791   1.416       .  A
C791        C792   1.398       .  A
C791        O795   1.373       .  S
C792        H796   1.083       .  S
O793        H798   0.992       .  S
O795        H799   0.992       .  S
O801       Zr837   2.481       .  S
O801        C812   1.301       .  A
O802       Zr836   2.464       .  S
O802        C813   1.297       .  A
O803       Zr809   2.423       .  S
O803        C814   1.288       .  A
O804       Zr809   2.427       .  S
O804        C815   1.289       .  A
O805       Zr839   2.426       .  S
O805        C815   1.290       .  A
O806       Zr838   2.431       .  S
O806        C814   1.292       .  A
O807       Zr809   2.437       .  S
O807        C813   1.292       .  A
O808       Zr809   2.418       .  S
O808        C812   1.289       .  A
Zr809       O810   2.333       .  S
Zr809       O811   2.337       .  S
Zr809       O819   2.342       .  S
Zr809       O817   2.336       .  S
O810       Zr836   2.350       .  S
O810       Zr839   2.338       .  S
O811       Zr837   2.354       .  S
O811       Zr838   2.327       .  S
C812       C1590   1.490       .  S
C813       C1365   1.485       .  S
C814       C1413   1.485       .  S
C815       C1437   1.483       .  S
H816        O817   0.966       .  S
O817       Zr836   2.355       .  S
O817       Zr838   2.341       .  S
H818        O819   0.966       .  S
O819       Zr837   2.350       .  S
O819       Zr839   2.330       .  S
O820       Zr836   2.456       .  S
O820        C843   1.296       .  A
O821       Zr837   2.495       .  S
O821        C844   1.303       .  A
O822       Zr838   2.425       .  S
O822        C845   1.291       .  A
O823       Zr839   2.424       .  S
O823        C846   1.291       .  A
O824       Zr839   2.441       .  S
O824        C847   1.293       .  A
O825       Zr838   2.429       .  S
O825        C848   1.292       .  A
O826       Zr840   2.444       .  S
O826        C849   1.292       .  A
O827       Zr840   2.432       .  S
O827        C850   1.292       .  A
O828       Zr838   2.428       .  S
O828        C849   1.290       .  A
O829       Zr839   2.412       .  S
O829        C850   1.287       .  A
O830       Zr836   2.466       .  S
O830        C845   1.298       .  A
O831       Zr837   2.449       .  S
O831        C848   1.294       .  A
O832       Zr837   2.461       .  S
O832        C847   1.296       .  A
O833       Zr836   2.475       .  S
O833        C846   1.299       .  A
O834       Zr840   2.431       .  S
O834        C843   1.291       .  A
O835       Zr840   2.422       .  S
O835        C844   1.291       .  A
Zr836       O842   2.352       .  S
Zr836       O854   2.349       .  S
Zr837       O841   2.345       .  S
Zr837       O852   2.352       .  S
Zr838       O842   2.333       .  S
Zr838       O852   2.338       .  S
Zr839       O841   2.332       .  S
Zr839       O854   2.342       .  S
Zr840       O841   2.340       .  S
Zr840       O842   2.328       .  S
Zr840       O854   2.342       .  S
Zr840       O852   2.337       .  S
C843       C1398   1.482       .  S
C844       C1557   1.508       .  S
C845       C1317   1.490       .  S
C846       C1341   1.501       .  S
C847       C1518   1.486       .  S
C848       C1533   1.491       .  S
C849       C1485   1.491       .  S
C850       C1470   1.480       .  S
H851        O852   0.966       .  S
H853        O854   0.966       .  S
N855        H887   1.040       .  S
N855        C859   1.352       .  A
N856       C2463   1.348       .  A
N856        C864   1.347       .  A
N857        H888   1.040       .  S
N857        C861   1.350       .  A
N858       C2465   1.347       .  A
N858        C866   1.348       .  A
C859        C867   1.388       .  A
C859        C875   1.414       .  A
C860        C876   1.408       .  A
C860        C868   1.387       .  A
C861        C869   1.387       .  A
C861        C878   1.409       .  A
C862        C877   1.413       .  A
C862        C870   1.387       .  A
C863       N2456   1.348       .  A
C863        C875   1.408       .  A
C863        C871   1.387       .  A
C864        C878   1.408       .  A
C864        C872   1.387       .  A
C865       N2458   1.348       .  A
C865        C873   1.386       .  A
C865        C876   1.408       .  A
C866        C874   1.386       .  A
C866        C877   1.407       .  A
C867        H879   1.082       .  S
C868        H880   1.083       .  S
C869        H881   1.082       .  S
C870        H882   1.082       .  S
C871       C2472   1.373   1_455  A
C871        H883   1.082       .  S
C872       C2471   1.374       .  A
C872        H884   1.082       .  S
C873       C2474   1.371       .  A
C873        H885   1.082       .  S
C874       C2473   1.373       .  A
C874        H886   1.082       .  S
C875       C1446   1.482       .  S
C876       C1461   1.473       .  S
C877       C1494   1.479       .  S
C878       C1422   1.477       .  S
O889       Zr925   2.472       .  S
O889        C900   1.299       .  A
O890       Zr924   2.483       .  S
O890        C901   1.301       .  A
O891      Zr2497   2.431   1_455  S
O891        C902   1.290   1_556  A
O892       Zr897   2.431       .  S
O892        C903   1.290       .  A
O893       Zr927   2.432       .  S
O893        C903   1.292       .  A
O894       Zr926   2.425   1_554  S
O894        C902   1.290       .  A
O895       Zr897   2.440   1_554  S
O895        C901   1.293       .  A
O896       Zr897   2.429       .  S
O896        C900   1.291       .  A
Zr897      O2491   2.443       .  S
Zr897       O898   2.337   1_556  S
Zr897      O2499   2.341       .  S
Zr897       O907   2.346       .  S
Zr897      O2505   2.338   1_556  S
O898       Zr924   2.351       .  S
O898       Zr927   2.338   1_554  S
O899      Zr2497   2.338   1_455  S
O899      Zr2525   2.353   1_455  S
O899       Zr926   2.336       .  S
C900       C1302   1.488       .  S
C901       C1077   1.498       .  S
C902       C1134   1.485       .  S
C903       C1149   1.488       .  S
H904        O905   0.965       .  S
O905      Zr2497   2.337   1_454  S
O905      Zr2524   2.350   1_455  S
O905       Zr926   2.335   1_554  S
H906        O907   0.966       .  S
O907       Zr925   2.355       .  S
O907       Zr927   2.340       .  S
O908        C931   1.301       .  A
O909        C932   1.300       .  A
O910       Zr926   2.416   1_554  S
O910        C933   1.289       .  A
O911       Zr927   2.432   1_554  S
O911        C934   1.292       .  A
O912       Zr927   2.440   1_545  S
O913       Zr926   2.417       .  S
O914      Zr2528   2.440   1_455  S
O914        C937   1.292   1_554  A
O915       Zr928   2.439   1_554  S
O915        C938   1.291       .  A
O916        C937   1.290       .  A
O917        C938   1.290       .  A
O918      Zr2524   2.464   1_455  S
O918        C933   1.297       .  A
O919      Zr1725   2.472   1_455  S
O919        C936   1.298       .  A
O920        C935   1.299       .  A
O921       Zr924   2.472       .  S
O921        C934   1.299       .  A
O922       Zr928   2.424   1_554  S
O922        C931   1.290       .  A
O923       Zr928   2.423       .  S
O923        C932   1.291       .  A
Zr924      O2518   2.468       .  S
Zr924      O2505   2.351       .  S
Zr924      O1730   2.350   1_565  S
Zr925      O1719   2.476       .  S
Zr925      O2499   2.352       .  S
Zr925      O1740   2.354   1_565  S
Zr928      O2514   2.434   1_556  S
Zr928       O929   2.338       .  S
Zr928      O2530   2.333   1_556  S
Zr928       O942   2.336   1_556  S
Zr928      O2540   2.340       .  S
O930      Zr1724   2.348   1_455  S
O930      Zr2528   2.334   1_455  S
C931       C1101   1.493       .  S
C932       C1269   1.495       .  S
C933       C1029   1.494       .  S
C934       C1062   1.496       .  S
C935       C1221   1.499       .  S
C936       C1245   1.498       .  S
C937       C1197   1.485   1_556  S
C938       C1173   1.489       .  S
H939        O940   0.965       .  S
O940      Zr1725   2.354   1_455  S
O940      Zr2528   2.342   1_456  S
H941        O942   0.967       .  S
N943        H975   1.041       .  S
N943        C948   1.352       .  A
N943        C947   1.353       .  A
N944        C951   1.349       .  A
N944        C952   1.348       .  A
N945        H976   1.040       .  S
N945        C950   1.352       .  A
N945        C949   1.349       .  A
N946        C953   1.347       .  A
N946        C954   1.349       .  A
C947        C955   1.387       .  A
C947        C963   1.412       .  A
C948        C964   1.413       .  A
C948        C956   1.387       .  A
C949        C957   1.388   1_554  A
C949        C966   1.409       .  A
C950        C965   1.410       .  A
C950        C958   1.386   1_554  A
C951        C963   1.408       .  A
C951        C959   1.386       .  A
C952        C966   1.408       .  A
C952        C960   1.387       .  A
C953        C961   1.387       .  A
C953        C964   1.408       .  A
C954        C962   1.385       .  A
C954        C965   1.407       .  A
C955        C956   1.374       .  A
C955        H967   1.082       .  S
C956        H968   1.082       .  S
C957        C958   1.374       .  A
C957        H969   1.082       .  S
C958        H970   1.082       .  S
C959        C960   1.375       .  A
C959        H971   1.082       .  S
C960        H972   1.082       .  S
C961        C962   1.374       .  A
C961        H973   1.082       .  S
C962        H974   1.082       .  S
C963       C1158   1.482       .  S
C964       C1182   1.482       .  S
C965       C1206   1.481       .  S
C966       C1125   1.472       .  S
C977        C978   1.534       .  S
C977       C2583   1.546       .  S
C977        C981   1.542       .  S
C977       C1509   1.547       .  S
C978        H985   1.085       .  S
C978       C2579   1.368       .  D
C979        C980   1.546       .  S
C979       C2578   1.367       .  D
C979       C1110   1.497       .  S
C980        C984   1.537       .  S
C980        C982   1.549       .  S
C980        H986   1.108       .  S
C981        H987   1.085       .  S
C981       C2582   1.375       .  D
C982       C2581   1.376       .  D
C982       C1086   1.509       .  S
C983       C2577   1.545       .  S
C983        H988   1.080       .  S
C983        C984   1.366       .  D
C984       C1542   1.484       .  S
C989        C990   1.536   1_545  S
C989        C995   1.541   1_545  S
C989       C1038   1.541       .  S
C990        H997   1.086       .  S
C990        C991   1.365       .  D
C991        C992   1.548       .  S
C991       C1566   1.488       .  S
C992        C996   1.544       .  S
C992        H998   1.110       .  S
C993        H999   1.080       .  S
C993        C994   1.365       .  D
C994       C1581   1.489       .  S
C995       H1000   1.086       .  S
C995        C996   1.372       .  D
C996       C1053   1.497       .  S
C1001      C1002   1.537       .  S
C1001      C2607   1.542       .  S
C1001      C1005   1.545       .  S
C1001      C1350   1.545       .  S
C1002      H1009   1.086       .  S
C1002      C2603   1.363       .  D
C1003      C1004   1.541       .  S
C1003      C2602   1.365       .  D
C1003      C1293   1.484       .  S
C1004      C1008   1.544       .  S
C1004      C1006   1.540       .  S
C1004      H1010   1.110       .  S
C1005      H1011   1.080       .  S
C1005      C2606   1.367       .  D
C1006      C2605   1.364       .  D
C1006      C1278   1.488       .  S
C1007      C2601   1.542       .  S
C1007      H1012   1.086       .  S
C1007      C1008   1.372       .  D
C1008      C1326   1.494       .  S
C1013      C1019   1.542       .  S
C1013      C1017   1.542       .  S
C1013      C1254   1.547       .  S
C1014      H1021   1.086       .  S
C1014      C1015   1.364       .  D
C1015      C1374   1.484       .  S
C1016      C1020   1.548       .  S
C1016      C1018   1.543       .  S
C1016      H1022   1.109       .  S
C1017      H1023   1.077       .  S
C1017      C1018   1.364       .  D
C1018      C1389   1.495       .  S
C1019      H1024   1.086       .  S
C1019      C1020   1.375       .  D
C1020      C1230   1.501       .  S
C1025      C1026   1.405   1_545  A
C1025      C1030   1.407   1_545  A
C1025      H1035   1.083       .  S
C1026      C1031   1.482       .  S
C1027      C1028   1.397       .  A
C1027      O1032   1.372       .  S
C1028      H1033   1.083       .  S
C1029      C1030   1.414       .  A
C1030      O1034   1.371   1_565  S
C1031      C1040   1.401       .  A
O1032      H1048   0.992       .  S
O1034      H1045   0.992   1_545  S
C1036      C1037   1.401       .  A
C1036      O1041   1.372       .  S
C1037      H1042   1.075       .  S
C1038      C1039   1.416   1_545  A
C1039      C1040   1.402       .  A
C1039      O1043   1.372       .  S
C1040      H1044   1.084       .  S
O1041      H1046   0.992       .  S
O1043      H1047   0.992       .  S
C1049      C1054   1.399       .  A
C1049      H1059   1.084       .  S
C1050      C1055   1.490       .  S
C1050      C1051   1.408       .  A
C1051      C1052   1.407       .  A
C1051      O1056   1.371       .  S
C1052      C1053   1.407       .  A
C1052      H1057   1.082       .  S
C1054      O1058   1.371       .  S
C1055      C1060   1.407       .  A
O1056      H1072   0.992       .  S
O1058      H1069   0.992       .  S
C1060      C1061   1.399       .  A
C1060      O1065   1.372       .  S
C1061      C1062   1.410       .  A
C1061      H1066   1.084       .  S
C1063      C1064   1.407       .  A
C1063      O1067   1.371       .  S
C1064      H1068   1.083       .  S
O1065      H1070   0.992       .  S
O1067      H1071   0.992       .  S
C1073      C2674   1.408   1_455  A
C1073      C1078   1.409   1_455  A
C1073      H1083   1.083       .  S
C1074      C1079   1.501       .  S
C1074      C2673   1.408       .  A
C1074      C1075   1.410       .  A
C1075      C1076   1.407       .  A
C1075      O1080   1.372       .  S
C1076      C1077   1.410       .  A
C1076      H1081   1.084       .  S
C1077      C2678   1.411       .  A
C1078      C2677   1.411       .  A
C1078      O1082   1.371   1_655  S
C1079      C2684   1.409       .  A
C1079      C1088   1.406       .  A
O1080      H1096   0.992       .  S
O1082      H1093   0.992   1_455  S
C1084      C2679   1.408   1_455  A
C1084      C1085   1.405       .  A
C1084      O1089   1.372       .  S
C1085      C2686   1.409       .  A
C1085      H1090   1.083       .  S
C1086      C2685   1.408       .  A
C1086      C1087   1.418       .  A
C1087      C1088   1.410       .  A
C1087      O1091   1.370       .  S
C1088      H1092   1.083       .  S
O1089      H1094   0.992       .  S
O1091      H1095   0.992       .  S
C1097      C1098   1.409       .  A
C1097      C1102   1.409       .  A
C1097      H1107   1.083       .  S
C1098      C1103   1.496       .  S
C1098      C2699   1.408       .  A
C1099      C2698   1.408   1_455  A
C1099      C1100   1.400       .  A
C1099      O1104   1.373       .  S
C1100      C2701   1.406   1_455  A
C1100      H1105   1.084       .  S
C1101      C2700   1.409       .  A
C1101      C1102   1.410       .  A
C1102      O1106   1.371       .  S
C1103      C1108   1.413       .  A
C1103      C2712   1.403       .  A
O1104      H1120   0.992       .  S
O1106      H1117   0.992       .  S
C1108      C1109   1.406       .  A
C1108      O1113   1.371       .  S
C1109      C1110   1.405       .  A
C1109      H1114   1.083       .  S
C1110      C2711   1.415       .  A
C1111      C2710   1.416       .  A
C1111      C1112   1.403       .  A
C1111      O1115   1.371       .  S
C1112      C2703   1.402   1_455  A
C1112      H1116   1.084       .  S
O1113      H1118   0.991       .  S
O1115      H1119   0.992       .  S
C1121      C1122   1.402   1_556  A
C1121      C1126   1.396       .  A
C1121      H1131   1.084       .  S
C1122      C1127   1.469       .  S
C1122      C1123   1.406       .  A
C1123      C1124   1.396       .  A
C1123      O1128   1.372       .  S
C1124      C1125   1.400       .  A
C1124      H1129   1.084       .  S
C1125      C1126   1.405   1_554  A
C1126      O1130   1.372       .  S
C1127      C1132   1.402       .  A
C1127      C1136   1.399       .  A
O1128      H1144   0.992       .  S
O1130      H1141   0.992       .  S
C1132      C1133   1.395       .  A
C1132      O1137   1.372       .  S
C1133      C1134   1.409       .  A
C1133      H1138   1.083       .  S
C1134      C1135   1.416       .  A
C1135      C1136   1.398       .  A
C1135      O1139   1.372       .  S
C1136      H1140   1.084       .  S
O1137      H1142   0.992   1_554  S
O1139      H1143   0.992   1_554  S
C1145      C1146   1.400       .  A
C1145      C1150   1.400   1_554  A
C1145      H1155   1.084       .  S
C1146      C1151   1.475       .  S
C1146      C1147   1.404       .  A
C1147      C1148   1.398       .  A
C1147      O1152   1.372       .  S
C1148      C1149   1.409   1_554  A
C1148      H1153   1.083       .  S
C1149      C1150   1.417       .  A
C1150      O1154   1.372       .  S
C1151      C1156   1.407   1_554  A
C1151      C1160   1.403       .  A
O1152      H1168   0.992   1_554  S
O1154      H1165   0.992   1_556  S
C1156      C1157   1.398       .  A
C1156      O1161   1.372       .  S
C1157      C1158   1.403   1_556  A
C1157      H1162   1.084       .  S
C1158      C1159   1.406       .  A
C1159      C1160   1.400       .  A
C1159      O1163   1.371       .  S
C1160      H1164   1.084       .  S
O1161      H1166   0.991       .  S
O1163      H1167   0.992       .  S
C1169      C1170   1.402       .  A
C1169      C1174   1.398       .  A
C1169      H1179   1.083       .  S
C1170      C1175   1.480       .  S
C1170      C1171   1.406       .  A
C1171      C1172   1.398       .  A
C1171      O1176   1.372       .  S
C1172      C1173   1.409       .  A
C1172      H1177   1.083       .  S
C1173      C1174   1.415       .  A
C1174      O1178   1.371       .  S
C1175      C1180   1.410       .  A
C1175      C1184   1.404   1_554  A
O1176      H1192   0.992       .  S
O1178      H1189   0.992   1_554  S
C1180      C1181   1.399       .  A
C1180      O1185   1.372       .  S
C1181      C1182   1.401       .  A
C1181      H1186   1.084       .  S
C1182      C1183   1.408       .  A
C1183      C1184   1.396   1_554  A
C1183      O1187   1.372   1_554  S
C1184      H1188   1.084       .  S
O1185      H1190   0.992       .  S
O1187      H1191   0.992       .  S
C1193      C1194   1.400   1_556  A
C1193      C1198   1.400       .  A
C1193      H1203   1.084       .  S
C1194      C1199   1.472       .  S
C1194      C1195   1.403       .  A
C1195      C1196   1.397       .  A
C1195      O1200   1.372       .  S
C1196      C1197   1.409       .  A
C1196      H1201   1.083       .  S
C1197      C1198   1.414   1_554  A
C1198      O1202   1.372       .  S
C1199      C1204   1.407   1_554  A
C1199      C1208   1.400       .  A
O1200      H1216   0.992   1_554  S
O1202      H1213   0.992   1_556  S
C1204      C1205   1.400       .  A
C1204      O1209   1.372       .  S
C1205      C1206   1.404   1_556  A
C1205      H1210   1.084       .  S
C1206      C1207   1.405       .  A
C1207      C1208   1.396       .  A
C1207      O1211   1.371       .  S
C1208      H1212   1.084       .  S
O1209      H1214   0.991       .  S
O1211      H1215   0.992       .  S
C1217      C1222   1.399       .  A
C1217      H1227   1.084       .  S
C1218      C1223   1.493   1_545  S
C1218      C1219   1.410   1_545  A
C1219      C1220   1.411       .  A
C1219      O1224   1.371       .  S
C1220      H1225   1.083       .  S
C1221      C1222   1.418       .  A
C1222      O1226   1.372       .  S
C1223      C1228   1.408       .  A
O1224      H1240   0.992       .  S
O1226      H1237   0.992       .  S
C1228      C1229   1.403       .  A
C1228      O1233   1.372       .  S
C1229      C1230   1.407       .  A
C1229      H1234   1.083       .  S
C1231      C1232   1.409       .  A
C1231      O1235   1.371       .  S
C1232      H1236   1.083       .  S
O1233      H1238   0.992       .  S
O1235      H1239   0.992       .  S
C1241      C1246   1.409       .  A
C1241      H1251   1.083       .  S
C1242      C1247   1.493       .  S
C1242      C1243   1.406       .  A
C1243      C1244   1.397       .  A
C1243      O1248   1.372       .  S
C1244      H1249   1.083       .  S
C1245      C1246   1.414       .  A
C1246      O1250   1.371       .  S
C1247      C1252   1.403   1_545  A
O1248      H1264   0.992   1_545  S
O1250      H1261   0.992       .  S
C1252      C1253   1.400       .  A
C1252      O1257   1.372       .  S
C1253      C1254   1.416       .  A
C1253      H1258   1.073       .  S
C1255      C1256   1.406       .  A
C1255      O1259   1.372       .  S
C1256      H1260   1.084       .  S
O1257      H1262   0.992       .  S
O1259      H1263   0.992       .  S
C1265      C2866   1.405       .  A
C1265      C1270   1.409       .  A
C1265      H1275   1.083       .  S
C1266      C1271   1.484       .  S
C1266      C2865   1.405       .  A
C1266      C1267   1.403       .  A
C1267      C1268   1.400       .  A
C1267      O1272   1.372       .  S
C1268      C1269   1.412       .  A
C1268      H1273   1.083       .  S
C1269      C2870   1.413       .  A
C1270      C2869   1.414       .  A
C1270      O1274   1.371       .  S
C1271      C2876   1.406       .  A
C1271      C1280   1.404       .  A
O1272      H1288   0.992       .  S
O1274      H1285   0.992   1_655  S
C1276      C2871   1.406   1_455  A
C1276      C1277   1.400       .  A
C1276      O1281   1.372       .  S
C1277      C2878   1.405   1_455  A
C1277      H1282   1.084       .  S
C1278      C2877   1.405       .  A
C1278      C1279   1.411       .  A
C1279      C1280   1.407       .  A
C1279      O1283   1.372       .  S
C1280      H1284   1.083       .  S
O1281      H1286   0.991       .  S
O1283      H1287   0.992       .  S
C1289      C2890   1.411       .  A
C1289      C1294   1.404       .  A
C1289      H1299   1.082       .  S
C1290      C1295   1.502       .  S
C1290      C2889   1.410       .  A
C1290      C1291   1.415       .  A
C1291      C1292   1.404       .  A
C1291      O1296   1.372       .  S
C1292      C1293   1.403       .  A
C1292      H1297   1.084       .  S
C1293      C2894   1.404       .  A
C1294      C2893   1.404   1_655  A
C1294      O1298   1.372   1_655  S
C1295      C1300   1.413       .  A
C1295      C2904   1.411       .  A
O1296      H1312   0.992       .  S
O1298      H1309   0.992       .  S
C1300      C1301   1.404       .  A
C1300      O1305   1.373       .  S
C1301      C1302   1.406       .  A
C1301      H1306   1.084       .  S
C1302      C2903   1.408       .  A
C1303      C2902   1.408   1_455  A
C1303      C1304   1.406       .  A
C1303      O1307   1.372       .  S
C1304      C2895   1.410   1_455  A
C1304      H1308   1.083       .  S
O1305      H1310   0.992       .  S
O1307      H1311   0.992       .  S
C1313      C1314   1.399       .  A
C1313      C1318   1.397       .  A
C1313      H1323   1.084       .  S
C1314      C1319   1.483       .  S
C1314      C1315   1.409       .  A
C1315      C1316   1.407       .  A
C1315      O1320   1.371       .  S
C1316      C1317   1.408       .  A
C1316      H1321   1.083       .  S
C1317      C1318   1.417       .  A
C1318      O1322   1.373       .  S
C1319      C1324   1.408       .  A
C1319      C1328   1.401       .  A
O1320      H1336   0.992       .  S
O1322      H1333   0.992       .  S
C1324      C1325   1.403       .  A
C1324      O1329   1.372       .  S
C1325      C1326   1.407       .  A
C1325      H1330   1.083       .  S
C1326      C1327   1.413       .  A
C1327      C1328   1.402       .  A
C1327      O1331   1.371       .  S
C1328      H1332   1.084       .  S
O1329      H1334   0.992       .  S
O1331      H1335   0.992       .  S
C1337      C1338   1.407       .  A
C1337      C1342   1.411       .  A
C1337      H1347   1.083       .  S
C1338      C1343   1.490       .  S
C1338      C1339   1.403       .  A
C1339      C1340   1.396       .  A
C1339      O1344   1.372       .  S
C1340      C1341   1.412       .  A
C1340      H1345   1.083       .  S
C1341      C1342   1.416       .  A
C1342      O1346   1.371       .  S
C1343      C1348   1.404       .  A
C1343      C1352   1.402       .  A
O1344      H1360   0.992       .  S
O1346      H1357   0.992       .  S
C1348      C1349   1.404       .  A
C1348      O1353   1.372       .  S
C1349      C1350   1.416       .  A
C1349      H1354   1.075       .  S
C1350      C1351   1.417       .  A
C1351      C1352   1.404       .  A
C1351      O1355   1.373       .  S
C1352      H1356   1.084       .  S
O1353      H1358   0.992       .  S
O1355      H1359   0.992       .  S
C1361      C1362   1.409       .  A
C1361      C1366   1.406       .  A
C1361      H1371   1.083       .  S
C1362      C1367   1.497       .  S
C1362      C1363   1.411       .  A
C1363      C1364   1.402       .  A
C1363      O1368   1.372       .  S
C1364      C1365   1.406       .  A
C1364      H1369   1.084       .  S
C1365      C1366   1.408       .  A
C1366      O1370   1.372       .  S
C1367      C1372   1.411       .  A
C1367      C1376   1.410       .  A
O1368      H1384   0.992       .  S
O1370      H1381   0.991       .  S
C1372      C1373   1.404       .  A
C1372      O1377   1.372       .  S
C1373      C1374   1.403       .  A
C1373      H1378   1.084       .  S
C1374      C1375   1.405       .  A
C1375      C1376   1.405       .  A
C1375      O1379   1.371       .  S
C1376      H1380   1.083       .  S
O1377      H1382   0.992       .  S
O1379      H1383   0.992       .  S
C1385      C1386   1.401       .  A
C1385      C1390   1.397       .  A
C1385      H1395   1.084       .  S
C1386      C1391   1.487       .  S
C1386      C1387   1.409       .  A
C1387      C1388   1.406       .  A
C1387      O1392   1.371       .  S
C1388      C1389   1.405       .  A
C1388      H1393   1.083       .  S
C1389      C1390   1.416       .  A
C1390      O1394   1.372       .  S
C1391      C1396   1.411       .  A
C1391      C1400   1.402       .  A
O1392      H1408   0.992       .  S
O1394      H1405   0.992       .  S
C1396      C1397   1.403       .  A
C1396      O1401   1.372       .  S
C1397      C1398   1.403       .  A
C1397      H1402   1.084       .  S
C1398      C1399   1.413       .  A
C1399      C1400   1.401       .  A
C1399      O1403   1.372       .  S
C1400      H1404   1.083       .  S
O1401      H1406   0.992       .  S
O1403      H1407   0.992       .  S
C1409      C1410   1.402       .  A
C1409      C1414   1.399       .  A
C1409      H1419   1.084       .  S
C1410      C1415   1.476       .  S
C1410      C1411   1.405       .  A
C1411      C1412   1.395       .  A
C1411      O1416   1.373       .  S
C1412      C1413   1.407       .  A
C1412      H1417   1.083       .  S
C1413      C1414   1.416       .  A
C1414      O1418   1.372       .  S
C1415      C1420   1.409       .  A
C1415      C1424   1.404       .  A
O1416      H1432   0.992       .  S
O1418      H1429   0.992       .  S
C1420      C1421   1.394       .  A
C1420      O1425   1.372       .  S
C1421      C1422   1.400       .  A
C1421      H1426   1.084       .  S
C1422      C1423   1.406       .  A
C1423      C1424   1.397       .  A
C1423      O1427   1.372       .  S
C1424      H1428   1.084       .  S
O1425      H1430   0.991       .  S
O1427      H1431   0.992       .  S
C1433      C1434   1.400       .  A
C1433      C1438   1.396       .  A
C1433      H1443   1.084       .  S
C1434      C1439   1.473       .  S
C1434      C1435   1.405       .  A
C1435      C1436   1.396       .  A
C1435      O1440   1.372       .  S
C1436      C1437   1.408       .  A
C1436      H1441   1.083       .  S
C1437      C1438   1.415       .  A
C1438      O1442   1.372       .  S
C1439      C1444   1.407       .  A
C1439      C1448   1.402       .  A
O1440      H1456   0.992       .  S
O1442      H1453   0.992       .  S
C1444      C1445   1.397       .  A
C1444      O1449   1.372       .  S
C1445      C1446   1.402       .  A
C1445      H1450   1.084       .  S
C1446      C1447   1.408       .  A
C1447      C1448   1.395       .  A
C1447      O1451   1.372       .  S
C1448      H1452   1.084       .  S
O1449      H1454   0.992       .  S
O1451      H1455   0.992       .  S
C1457      C1458   1.403       .  A
C1457      C1462   1.395       .  A
C1457      H1467   1.084       .  S
C1458      C1463   1.467       .  S
C1458      C1459   1.406       .  A
C1459      C1460   1.395       .  A
C1459      O1464   1.372       .  S
C1460      C1461   1.400       .  A
C1460      H1465   1.084       .  S
C1461      C1462   1.404       .  A
C1462      O1466   1.372       .  S
C1463      C1468   1.404       .  A
C1463      C1472   1.398       .  A
O1464      H1480   0.992       .  S
O1466      H1477   0.992       .  S
C1468      C1469   1.395       .  A
C1468      O1473   1.371       .  S
C1469      C1470   1.408       .  A
C1469      H1474   1.083       .  S
C1470      C1471   1.417       .  A
C1471      C1472   1.393       .  A
C1471      O1475   1.372       .  S
C1472      H1476   1.084       .  S
O1473      H1478   0.992       .  S
O1475      H1479   0.992       .  S
C1481      C1482   1.400       .  A
C1481      C1486   1.398       .  A
C1481      H1491   1.084       .  S
C1482      C1487   1.476       .  S
C1482      C1483   1.404       .  A
C1483      C1484   1.400       .  A
C1483      O1488   1.372       .  S
C1484      C1485   1.411       .  A
C1484      H1489   1.083       .  S
C1485      C1486   1.416       .  A
C1486      O1490   1.371       .  S
C1487      C1492   1.407       .  A
C1487      C1496   1.404       .  A
O1488      H1504   0.992       .  S
O1490      H1501   0.992       .  S
C1492      C1493   1.398       .  A
C1492      O1497   1.372       .  S
C1493      C1494   1.401       .  A
C1493      H1498   1.084       .  S
C1494      C1495   1.406       .  A
C1495      C1496   1.399       .  A
C1495      O1499   1.372       .  S
C1496      H1500   1.084       .  S
O1497      H1502   0.992       .  S
O1499      H1503   0.992       .  S
C1505      C1506   1.404       .  A
C1505      C1510   1.408       .  A
C1505      H1515   1.083       .  S
C1506      C1511   1.498       .  S
C1506      C1507   1.409       .  A
C1507      C1508   1.401       .  A
C1507      O1512   1.372       .  S
C1508      C1509   1.414       .  A
C1508      H1513   1.075       .  S
C1509      C1510   1.418       .  A
C1510      O1514   1.372       .  S
C1511      C1516   1.413       .  A
C1511      C1520   1.406       .  A
O1512      H1528   0.992       .  S
O1514      H1525   0.992       .  S
C1516      C1517   1.410       .  A
C1516      O1521   1.372       .  S
C1517      C1518   1.406       .  A
C1517      H1522   1.084       .  S
C1518      C1519   1.409       .  A
C1519      C1520   1.400       .  A
C1519      O1523   1.372       .  S
C1520      H1524   1.083       .  S
O1521      H1526   0.992       .  S
O1523      H1527   0.992       .  S
C1529      C1530   1.403       .  A
C1529      C1534   1.406       .  A
C1529      H1539   1.083       .  S
C1530      C1535   1.480       .  S
C1530      C1531   1.404       .  A
C1531      C1532   1.393       .  A
C1531      O1536   1.372       .  S
C1532      C1533   1.409       .  A
C1532      H1537   1.083       .  S
C1533      C1534   1.416       .  A
C1534      O1538   1.371       .  S
C1535      C1540   1.407       .  A
C1535      C1544   1.402       .  A
O1536      H1552   0.992       .  S
O1538      H1549   0.992       .  S
C1540      C1541   1.403       .  A
C1540      O1545   1.371       .  S
C1541      C1542   1.404       .  A
C1541      H1546   1.083       .  S
C1542      C1543   1.412       .  A
C1543      C1544   1.397       .  A
C1543      O1547   1.372       .  S
C1544      H1548   1.084       .  S
O1545      H1550   0.992       .  S
O1547      H1551   0.992       .  S
C1553      C1554   1.409       .  A
C1553      C1558   1.412       .  A
C1553      H1563   1.083       .  S
C1554      C1559   1.501       .  S
C1554      C1555   1.408       .  A
C1555      C1556   1.402       .  A
C1555      O1560   1.372       .  S
C1556      C1557   1.414       .  A
C1556      H1561   1.083       .  S
C1557      C1558   1.415       .  A
C1558      O1562   1.371       .  S
C1559      C1564   1.413       .  A
C1559      C1568   1.408       .  A
O1560      H1576   0.992       .  S
O1562      H1573   0.992       .  S
C1564      C1565   1.409       .  A
C1564      O1569   1.371       .  S
C1565      C1566   1.404       .  A
C1565      H1570   1.083       .  S
C1566      C1567   1.407       .  A
C1567      C1568   1.404       .  A
C1567      O1571   1.372       .  S
C1568      H1572   1.083       .  S
O1569      H1574   0.992       .  S
O1571      H1575   0.992       .  S
C1577      C1578   1.404       .  A
C1577      C1582   1.401       .  A
C1577      H1587   1.083       .  S
C1578      C1583   1.496       .  S
C1578      C1579   1.416       .  A
C1579      C1580   1.405       .  A
C1579      O1584   1.371       .  S
C1580      C1581   1.401       .  A
C1580      H1585   1.084       .  S
C1581      C1582   1.412       .  A
C1582      O1586   1.372       .  S
C1583      C1588   1.415       .  A
C1583      C1592   1.403       .  A
O1584      H1600   0.992       .  S
O1586      H1597   0.992       .  S
C1588      C1589   1.411       .  A
C1588      O1593   1.372       .  S
C1589      C1590   1.406       .  A
C1589      H1594   1.083       .  S
C1590      C1591   1.414       .  A
C1591      C1592   1.397       .  A
C1591      O1595   1.372       .  S
C1592      H1596   1.083       .  S
O1593      H1598   0.992       .  S
O1595      H1599   0.992       .  S
O1601     Zr1637   2.484       .  S
O1601      C1612   1.301       .  A
O1602     Zr1636   2.472       .  S
O1602      C1613   1.299       .  A
O1603     Zr1609   2.430       .  S
O1603      C1614   1.290       .  A
O1604     Zr1609   2.420       .  S
O1604      C1615   1.288       .  A
O1605     Zr1639   2.433       .  S
O1605      C1615   1.292       .  A
O1606     Zr1638   2.438       .  S
O1606      C1614   1.293       .  A
O1607     Zr1609   2.424       .  S
O1607      C1613   1.290       .  A
O1608     Zr1609   2.421       .  S
O1608      C1612   1.289       .  A
Zr1609     O1610   2.336       .  S
Zr1609     O1611   2.335       .  S
Zr1609     O1619   2.341       .  S
Zr1609     O1617   2.335       .  S
O1610     Zr1636   2.347       .  S
O1610     Zr1639   2.340       .  S
O1611     Zr1637   2.355       .  S
O1611     Zr1638   2.336       .  S
C1612      C2390   1.492       .  S
C1613      C2165   1.484       .  S
C1614      C2213   1.490       .  S
C1615      C2237   1.484       .  S
H1616      O1617   0.966       .  S
O1617     Zr1636   2.353       .  S
O1617     Zr1638   2.340       .  S
H1618      O1619   0.966       .  S
O1619     Zr1637   2.350       .  S
O1619     Zr1639   2.335       .  S
O1620     Zr1636   2.462       .  S
O1620      C1643   1.297       .  A
O1621     Zr1637   2.493       .  S
O1621      C1644   1.303       .  A
O1622     Zr1638   2.437       .  S
O1622      C1645   1.293       .  A
O1623     Zr1639   2.423       .  S
O1623      C1646   1.291       .  A
O1624     Zr1639   2.440       .  S
O1624      C1647   1.293       .  A
O1625     Zr1638   2.443       .  S
O1625      C1648   1.295       .  A
O1626     Zr1640   2.428       .  S
O1626      C1649   1.290       .  A
O1627     Zr1640   2.429       .  S
O1627      C1650   1.290       .  A
O1628     Zr1638   2.430       .  S
O1628      C1649   1.291       .  A
O1629     Zr1639   2.431       .  S
O1629      C1650   1.291       .  A
O1630     Zr1636   2.459       .  S
O1630      C1645   1.297       .  A
O1631     Zr1637   2.453       .  S
O1631      C1648   1.295       .  A
O1632     Zr1637   2.451       .  S
O1632      C1647   1.295       .  A
O1633     Zr1636   2.466       .  S
O1633      C1646   1.297       .  A
O1634     Zr1640   2.432       .  S
O1634      C1643   1.291       .  A
O1635     Zr1640   2.423       .  S
O1635      C1644   1.291       .  A
Zr1636     O1642   2.352       .  S
Zr1636     O1654   2.352       .  S
Zr1637     O1641   2.347       .  S
Zr1637     O1652   2.351       .  S
Zr1638     O1642   2.339       .  S
Zr1638     O1652   2.341       .  S
Zr1639     O1641   2.330       .  S
Zr1639     O1654   2.340       .  S
Zr1640     O1641   2.334       .  S
Zr1640     O1642   2.330       .  S
Zr1640     O1654   2.337       .  S
Zr1640     O1652   2.341       .  S
C1643      C2198   1.488       .  S
C1644      C2357   1.506       .  S
C1645      C2117   1.491       .  S
C1646      C2141   1.493       .  S
C1647      C2318   1.481       .  S
C1648      C2333   1.498       .  S
C1649      C2285   1.484       .  S
C1650      C2270   1.482       .  S
H1651      O1652   0.967       .  S
H1653      O1654   0.966       .  S
N1655      H1687   1.039       .  S
N1655      C2460   1.349   1_545  A
N1655      C1659   1.348       .  A
N1656      C1664   1.349   1_455  A
N1657      H1688   1.038       .  S
N1657      C2462   1.351       .  A
N1657      C1661   1.352   1_565  A
N1658      C1666   1.349   1_455  A
C1659      C1667   1.387       .  A
C1659      C1675   1.408       .  A
C1660      N2455   1.350       .  A
C1660      C1676   1.408       .  A
C1660      C1668   1.387       .  A
C1661      C1669   1.387       .  A
C1661      C1678   1.413       .  A
C1662      N2457   1.351       .  A
C1662      C1677   1.411       .  A
C1662      C1670   1.387       .  A
C1663      C1675   1.409       .  A
C1663      C1671   1.385       .  A
C1664      C1678   1.410       .  A
C1664      C1672   1.386       .  A
C1665      C1673   1.387       .  A
C1665      C1676   1.409       .  A
C1666      C1674   1.386   1_655  A
C1666      C1677   1.410       .  A
C1667      C2468   1.374   1_545  A
C1667      H1679   1.083       .  S
C1668      C2467   1.373       .  A
C1668      H1680   1.082       .  S
C1669      C2470   1.376   1_545  A
C1669      H1681   1.082       .  S
C1670      C2469   1.374       .  A
C1670      H1682   1.082       .  S
C1671      H1683   1.082       .  S
C1672      H1684   1.082       .  S
C1673      H1685   1.082       .  S
C1674      H1686   1.082   1_455  S
C1675      C2246   1.477       .  S
C1676      C2261   1.474       .  S
C1677      C2294   1.478       .  S
C1678      C2222   1.480       .  S
O1689     Zr1725   2.479       .  S
O1689      C1700   1.300       .  A
O1690     Zr1724   2.471       .  S
O1690      C1701   1.299       .  A
O1691      C1702   1.292       .  A
O1692     Zr1697   2.424       .  S
O1692      C1703   1.289       .  A
O1693     Zr1727   2.424       .  S
O1693      C1703   1.290       .  A
O1694     Zr1726   2.428       .  S
O1694      C1702   1.291       .  A
O1695     Zr1697   2.443   1_554  S
O1695      C1701   1.293       .  A
O1696     Zr1697   2.433       .  S
O1696      C1700   1.292       .  A
Zr1697     O1698   2.336   1_556  S
Zr1697     O1707   2.345       .  S
O1698     Zr1724   2.353       .  S
O1698     Zr1727   2.335   1_554  S
O1699     Zr1726   2.332       .  S
C1700      C2102   1.488       .  S
C1701      C1877   1.493       .  S
C1702      C1934   1.489       .  S
C1703      C1949   1.480       .  S
H1704      O1705   0.965       .  S
O1705     Zr1726   2.335   1_554  S
H1706      O1707   0.967       .  S
O1707     Zr1725   2.355       .  S
O1707     Zr1727   2.335       .  S
O1708     Zr2524   2.484   1_545  S
O1708      C1731   1.301       .  A
O1709     Zr2525   2.466   1_545  S
O1709      C1732   1.298       .  A
O1710     Zr1726   2.414   1_554  S
O1710      C1733   1.289       .  A
O1711     Zr1727   2.419   1_554  S
O1711      C1734   1.290       .  A
O1712     Zr1727   2.427       .  S
O1712      C2535   1.290       .  A
O1713     Zr1726   2.411       .  S
O1713      C2536   1.288       .  A
O1714      C1737   1.290   1_556  A
O1715     Zr1728   2.429   1_554  S
O1715      C1738   1.290       .  A
O1716     Zr2526   2.432   1_545  S
O1716      C1737   1.291   1_556  A
O1717     Zr2527   2.430   1_545  S
O1717      C1738   1.291   1_556  A
O1718      C1733   1.298       .  A
O1719      C1736   1.299       .  A
O1720     Zr2525   2.476       .  S
O1720      C1735   1.300   1_565  A
O1721     Zr1724   2.468       .  S
O1721      C1734   1.298       .  A
O1722     Zr1728   2.430   1_554  S
O1722      C1731   1.292       .  A
O1723     Zr1728   2.436       .  S
O1723      C1732   1.293       .  A
Zr1724     O2508   2.470       .  S
Zr1724     O2542   2.353       .  S
Zr1725     O2509   2.478       .  S
Zr1725     O2520   2.468       .  S
Zr1725     O2529   2.353       .  S
Zr1726     O2516   2.432   1_556  S
Zr1726     O2530   2.328   1_556  S
Zr1726     O2540   2.334       .  S
Zr1727     O2517   2.422   1_556  S
Zr1727     O2529   2.329       .  S
Zr1727     O2542   2.338   1_556  S
Zr1728     O1729   2.336       .  S
Zr1728     O1742   2.343   1_556  S
O1729     Zr2525   2.352   1_545  S
O1729     Zr2527   2.333   1_545  S
O1730     Zr2526   2.328   1_544  S
C1731      C1901   1.497       .  S
C1732      C2069   1.493       .  S
C1733      C1829   1.496       .  S
C1734      C1862   1.489       .  S
C1735      O2512   1.293   1_545  A
C1735      C2021   1.500       .  S
C1736      O2513   1.289       .  A
C1736      C2045   1.498       .  S
C1737      C1997   1.490       .  S
C1738      C1973   1.486       .  S
H1739      O1740   0.965       .  S
O1740     Zr2526   2.333   1_545  S
H1741      O1742   0.967       .  S
O1742     Zr2524   2.354   1_545  S
O1742     Zr2527   2.341   1_544  S
N1743      H1775   1.039       .  S
N1743      C1748   1.351       .  A
N1743      C1747   1.351       .  A
N1744      C1751   1.349       .  A
N1744      C1752   1.349       .  A
N1745      H1776   1.039       .  S
N1745      C1750   1.353       .  A
N1745      C1749   1.353       .  A
N1746      C1753   1.349       .  A
N1746      C1754   1.349       .  A
C1747      C1755   1.387       .  A
C1747      C1763   1.410       .  A
C1748      C1764   1.410       .  A
C1748      C1756   1.387       .  A
C1749      C1757   1.387       .  A
C1749      C1766   1.413       .  A
C1750      C1765   1.413       .  A
C1750      C1758   1.387       .  A
C1751      C1763   1.408       .  A
C1751      C1759   1.386       .  A
C1752      C1766   1.408       .  A
C1752      C1760   1.386       .  A
C1753      C1761   1.386       .  A
C1753      C1764   1.408       .  A
C1754      C1762   1.386       .  A
C1754      C1765   1.409       .  A
C1755      C1756   1.373       .  A
C1755      H1767   1.082   1_554  S
C1756      H1768   1.082   1_554  S
C1757      C1758   1.374       .  A
C1757      H1769   1.082   1_554  S
C1758      H1770   1.082   1_554  S
C1759      C1760   1.373       .  A
C1759      H1771   1.083       .  S
C1760      H1772   1.082       .  S
C1761      C1762   1.372       .  A
C1761      H1773   1.082       .  S
C1762      H1774   1.082       .  S
C1763      C1958   1.476       .  S
C1764      C1982   1.477       .  S
C1765      C2006   1.481       .  S
C1766      C1925   1.480       .  S
C1777      C1778   1.531       .  S
C1777      C1781   1.539       .  S
C1777      C2309   1.543       .  S
C1778      H1785   1.085       .  S
C1779      C1780   1.550   1_455  S
C1779      C1910   1.499       .  S
C1780      C1784   1.541       .  S
C1780      C1782   1.551   1_655  S
C1780      H1786   1.109       .  S
C1781      H1787   1.086       .  S
C1782      C1886   1.503       .  S
C1783      H1788   1.080       .  S
C1783      C1784   1.370   1_455  D
C1784      C2342   1.494       .  S
C1789      C1790   1.534       .  S
C1789      C1795   1.536       .  S
C1789      C2593   1.544       .  S
C1789      C1838   1.543       .  S
C1790      H1797   1.085       .  S
C1790      C1791   1.368       .  D
C1791      C1792   1.553       .  S
C1791      C2366   1.501       .  S
C1792      C1796   1.544       .  S
C1792      C2594   1.545       .  S
C1792      H1798   1.110       .  S
C1793      C2589   1.542       .  S
C1793      H1799   1.079       .  S
C1793      C1794   1.364       .  D
C1794      C2592   1.546       .  S
C1794      C2381   1.493       .  S
C1795      H1800   1.086       .  S
C1795      C1796   1.370       .  D
C1796      C1853   1.494       .  S
C1801      C1802   1.533       .  S
C1801      C1805   1.543       .  S
C1801      C2150   1.542       .  S
C1802      H1809   1.087       .  S
C1803      C1804   1.544   1_455  S
C1803      C2093   1.487       .  S
C1804      C1808   1.545       .  S
C1804      C1806   1.541   1_655  S
C1804      H1810   1.108       .  S
C1805      H1811   1.081       .  S
C1806      C2078   1.493       .  S
C1807      H1812   1.086       .  S
C1807      C1808   1.375   1_455  D
C1808      C2126   1.497       .  S
C1813      C2614   1.536       .  S
C1813      C1819   1.539       .  S
C1813      C1817   1.541       .  S
C1813      C2054   1.541       .  S
C1814      C2613   1.533   1_545  S
C1814      H1821   1.086       .  S
C1814      C1815   1.362       .  D
C1815      C2616   1.539   1_545  S
C1815      C2174   1.479       .  S
C1816      C2615   1.543       .  S
C1816      C1820   1.546       .  S
C1816      C1818   1.544       .  S
C1816      H1822   1.110       .  S
C1817      H1823   1.079       .  S
C1817      C1818   1.363       .  D
C1818      C2189   1.492       .  S
C1819      H1824   1.086       .  S
C1819      C1820   1.372       .  D
C1820      C2030   1.492       .  S
C1825      C1826   1.405       .  A
C1825      C1830   1.407       .  A
C1825      H1835   1.083       .  S
C1826      C1831   1.483       .  S
C1826      C2627   1.402       .  A
C1827      C2626   1.403       .  A
C1827      C1828   1.395       .  A
C1827      O1832   1.372       .  S
C1828      C2629   1.412       .  A
C1828      H1833   1.083       .  S
C1829      C2628   1.412       .  A
C1829      C1830   1.414       .  A
C1830      O1834   1.371       .  S
C1831      C2636   1.402       .  A
C1831      C1840   1.400       .  A
O1832      H1848   0.992   1_565  S
O1834      H1845   0.992       .  S
C1836      C2631   1.401   1_545  A
C1836      C1837   1.400       .  A
C1836      O1841   1.372       .  S
C1837      C2638   1.416   1_545  A
C1837      H1842   1.074       .  S
C1838      C2637   1.416       .  A
C1838      C1839   1.419       .  A
C1839      C1840   1.404       .  A
C1839      O1843   1.373       .  S
C1840      H1844   1.084       .  S
O1841      H1846   0.992       .  S
O1843      H1847   0.992       .  S
C1849      C2650   1.404   1_545  A
C1849      C1854   1.401       .  A
C1849      H1859   1.084       .  S
C1850      C1855   1.483       .  S
C1850      C2649   1.402       .  A
C1850      C1851   1.406       .  A
C1851      C1852   1.403       .  A
C1851      O1856   1.371       .  S
C1852      C1853   1.406       .  A
C1852      H1857   1.079       .  S
C1853      C2654   1.415       .  A
C1854      C2653   1.413       .  A
C1854      O1858   1.372       .  S
C1855      C1860   1.405       .  A
C1855      C2664   1.405       .  A
O1856      H1872   0.992       .  S
O1858      H1869   0.992       .  S
C1860      C1861   1.395       .  A
C1860      O1865   1.372       .  S
C1861      C1862   1.408       .  A
C1861      H1866   1.084       .  S
C1862      C2663   1.412       .  A
C1863      C2662   1.415   1_545  A
C1863      C1864   1.410       .  A
C1863      O1867   1.371       .  S
C1864      C2655   1.406   1_545  A
C1864      H1868   1.083       .  S
O1865      H1870   0.992       .  S
O1867      H1871   0.992   1_545  S
C1873      C1878   1.406       .  A
C1873      H1883   1.083       .  S
C1874      C1879   1.496       .  S
C1874      C1875   1.409       .  A
C1875      C1876   1.406       .  A
C1875      O1880   1.372       .  S
C1876      C1877   1.409       .  A
C1876      H1881   1.084       .  S
C1878      O1882   1.371       .  S
C1879      C1888   1.406       .  A
O1880      H1896   0.992       .  S
O1882      H1893   0.992       .  S
C1884      C1885   1.403       .  A
C1884      O1889   1.372       .  S
C1885      H1890   1.083       .  S
C1886      C1887   1.415   1_455  A
C1887      C1888   1.409       .  A
C1887      O1891   1.371       .  S
C1888      H1892   1.083       .  S
O1889      H1894   0.992       .  S
O1891      H1895   0.992       .  S
C1897      C1898   1.409       .  A
C1897      C1902   1.410       .  A
C1897      H1907   1.083       .  S
C1898      C1903   1.499       .  S
C1899      C1900   1.401       .  A
C1899      O1904   1.373       .  S
C1900      H1905   1.082       .  S
C1901      C1902   1.411       .  A
C1902      O1906   1.371       .  S
C1903      C1908   1.414       .  A
O1904      H1920   0.992       .  S
O1906      H1917   0.992       .  S
C1908      C1909   1.407       .  A
C1908      O1913   1.371       .  S
C1909      C1910   1.404   1_655  A
C1909      H1914   1.083       .  S
C1911      C1912   1.402       .  A
C1911      O1915   1.371       .  S
C1912      H1916   1.084       .  S
O1913      H1918   0.991       .  S
O1915      H1919   0.992       .  S
C1921      C1922   1.402   1_556  A
C1921      C1926   1.399       .  A
C1921      H1931   1.084       .  S
C1922      C1927   1.472       .  S
C1922      C1923   1.407       .  A
C1923      C1924   1.397       .  A
C1923      O1928   1.371       .  S
C1924      C1925   1.401       .  A
C1924      H1929   1.084       .  S
C1925      C1926   1.407   1_554  A
C1926      O1930   1.372       .  S
C1927      C1932   1.402       .  A
C1927      C1936   1.400   1_554  A
O1928      H1944   0.992       .  S
O1930      H1941   0.992       .  S
C1932      C1933   1.397       .  A
C1932      O1937   1.372       .  S
C1933      C1934   1.411   1_554  A
C1933      H1938   1.083       .  S
C1934      C1935   1.416       .  A
C1935      C1936   1.400       .  A
C1935      O1939   1.371       .  S
C1936      H1940   1.084       .  S
O1937      H1942   0.992   1_554  S
O1939      H1943   0.992       .  S
C1945      C1946   1.398   1_556  A
C1945      C1950   1.397       .  A
C1945      H1955   1.084       .  S
C1946      C1951   1.464       .  S
C1946      C1947   1.401       .  A
C1947      C1948   1.394       .  A
C1947      O1952   1.372       .  S
C1948      C1949   1.408   1_554  A
C1948      H1953   1.083       .  S
C1949      C1950   1.415       .  A
C1950      O1954   1.372       .  S
C1951      C1956   1.405   1_554  A
C1951      C1960   1.400       .  A
O1952      H1968   0.992   1_554  S
O1954      H1965   0.992   1_556  S
C1956      C1957   1.395       .  A
C1956      O1961   1.372       .  S
C1957      C1958   1.402   1_556  A
C1957      H1962   1.084       .  S
C1958      C1959   1.406       .  A
C1959      C1960   1.396       .  A
C1959      O1963   1.371       .  S
C1960      H1964   1.084       .  S
O1961      H1966   0.992       .  S
O1963      H1967   0.992       .  S
C1969      C1970   1.401       .  A
C1969      C1974   1.400       .  A
C1969      H1979   1.084       .  S
C1970      C1975   1.474       .  S
C1970      C1971   1.403       .  A
C1971      C1972   1.394       .  A
C1971      O1976   1.372       .  S
C1972      C1973   1.408       .  A
C1972      H1977   1.083       .  S
C1973      C1974   1.416       .  A
C1974      O1978   1.372       .  S
C1975      C1980   1.407       .  A
C1975      C1984   1.403   1_554  A
O1976      H1992   0.992       .  S
O1978      H1989   0.992   1_554  S
C1980      C1981   1.398       .  A
C1980      O1985   1.372       .  S
C1981      C1982   1.401       .  A
C1981      H1986   1.084       .  S
C1982      C1983   1.405   1_554  A
C1983      C1984   1.396       .  A
C1983      O1987   1.372       .  S
C1984      H1988   1.084       .  S
O1985      H1990   0.992       .  S
O1987      H1991   0.992       .  S
C1993      C1994   1.400       .  A
C1993      C1998   1.400       .  A
C1993      H2003   1.084       .  S
C1994      C1999   1.477       .  S
C1994      C1995   1.404       .  A
C1995      C1996   1.399       .  A
C1995      O2000   1.372       .  S
C1996      C1997   1.410       .  A
C1996      H2001   1.083   1_554  S
C1997      C1998   1.416       .  A
C1998      O2002   1.372       .  S
C1999      C2004   1.408   1_554  A
C1999      C2008   1.404       .  A
O2000      H2016   0.992   1_554  S
O2002      H2013   0.991       .  S
C2004      C2005   1.398       .  A
C2004      O2009   1.371       .  S
C2005      C2006   1.402   1_556  A
C2005      H2010   1.084       .  S
C2006      C2007   1.405       .  A
C2007      C2008   1.398       .  A
C2007      O2011   1.371       .  S
C2008      H2012   1.084       .  S
O2009      H2014   0.991       .  S
O2011      H2015   0.992       .  S
C2017      C2818   1.401       .  A
C2017      C2022   1.400       .  A
C2017      H2027   1.084       .  S
C2018      C2023   1.488       .  S
C2018      C2817   1.400       .  A
C2018      C2019   1.409       .  A
C2019      C2020   1.408       .  A
C2019      O2024   1.371       .  S
C2020      C2821   1.410       .  A
C2020      H2025   1.083       .  S
C2021      C2820   1.410   1_545  A
C2021      C2022   1.417       .  A
C2022      O2026   1.372       .  S
C2023      C2028   1.409       .  A
C2023      C2832   1.404       .  A
O2024      H2040   0.992       .  S
O2026      H2037   0.992       .  S
C2028      C2029   1.400       .  A
C2028      O2033   1.372       .  S
C2029      C2030   1.405       .  A
C2029      H2034   1.083       .  S
C2030      C2831   1.412       .  A
C2031      C2830   1.414   1_545  A
C2031      C2032   1.410       .  A
C2031      O2035   1.371       .  S
C2032      C2823   1.405   1_545  A
C2032      H2036   1.083       .  S
O2033      H2038   0.992       .  S
O2035      H2039   0.992       .  S
C2041      C2842   1.408       .  A
C2041      C2046   1.407       .  A
C2041      H2051   1.083       .  S
C2042      C2047   1.487       .  S
C2042      C2841   1.408       .  A
C2042      C2043   1.403       .  A
C2043      C2044   1.394       .  A
C2043      O2048   1.372       .  S
C2044      C2845   1.413       .  A
C2044      H2049   1.083       .  S
C2045      C2844   1.412   1_565  A
C2045      C2046   1.413   1_565  A
C2046      O2050   1.371   1_545  S
C2047      C2052   1.402       .  A
C2047      C2856   1.404       .  A
O2048      H2064   0.992       .  S
O2050      H2061   0.992   1_565  S
C2052      C2053   1.399       .  A
C2052      O2057   1.372       .  S
C2053      C2054   1.415       .  A
C2053      H2058   1.074       .  S
C2054      C2855   1.417       .  A
C2055      C2854   1.416       .  A
C2055      C2056   1.406       .  A
C2055      O2059   1.372       .  S
C2056      C2847   1.406       .  A
C2056      H2060   1.083       .  S
O2057      H2062   0.992       .  S
O2059      H2063   0.992       .  S
C2065      C2070   1.406       .  A
C2065      H2075   1.084       .  S
C2066      C2071   1.483       .  S
C2066      C2067   1.403       .  A
C2067      C2068   1.400       .  A
C2067      O2072   1.372       .  S
C2068      C2069   1.410       .  A
C2068      H2073   1.084       .  S
C2070      O2074   1.371       .  S
C2071      C2080   1.404       .  A
O2072      H2088   0.992       .  S
O2074      H2085   0.992       .  S
C2076      C2077   1.399       .  A
C2076      O2081   1.372       .  S
C2077      H2082   1.084       .  S
C2078      C2079   1.414   1_455  A
C2079      C2080   1.408       .  A
C2079      O2083   1.371       .  S
C2080      H2084   1.083       .  S
O2081      H2086   0.991       .  S
O2083      H2087   0.992       .  S
C2089      C2094   1.406       .  A
C2089      H2099   1.083       .  S
C2090      C2095   1.500       .  S
C2090      C2091   1.413       .  A
C2091      C2092   1.405       .  A
C2091      O2096   1.372       .  S
C2092      C2093   1.405   1_655  A
C2092      H2097   1.084       .  S
C2094      O2098   1.372       .  S
C2095      C2100   1.411       .  A
O2096      H2112   0.992       .  S
O2098      H2109   0.992       .  S
C2100      C2101   1.405       .  A
C2100      O2105   1.373       .  S
C2101      C2102   1.406       .  A
C2101      H2106   1.084       .  S
C2103      C2104   1.407       .  A
C2103      O2107   1.372       .  S
C2104      H2108   1.083       .  S
O2105      H2110   0.992       .  S
O2107      H2111   0.992       .  S
C2113      C2114   1.400       .  A
C2113      C2118   1.397       .  A
C2113      H2123   1.084       .  S
C2114      C2119   1.485       .  S
C2114      C2115   1.409       .  A
C2115      C2116   1.408       .  A
C2115      O2120   1.371       .  S
C2116      C2117   1.409       .  A
C2116      H2121   1.083       .  S
C2117      C2118   1.415       .  A
C2118      O2122   1.372       .  S
C2119      C2124   1.408       .  A
C2119      C2128   1.401       .  A
O2120      H2136   0.992       .  S
O2122      H2133   0.992       .  S
C2124      C2125   1.402       .  A
C2124      O2129   1.372       .  S
C2125      C2126   1.407       .  A
C2125      H2130   1.083       .  S
C2126      C2127   1.415       .  A
C2127      C2128   1.404       .  A
C2127      O2131   1.371       .  S
C2128      H2132   1.084       .  S
O2129      H2134   0.992       .  S
O2131      H2135   0.992       .  S
C2137      C2138   1.408       .  A
C2137      C2142   1.410       .  A
C2137      H2147   1.083       .  S
C2138      C2143   1.486       .  S
C2138      C2139   1.403       .  A
C2139      C2140   1.393       .  A
C2139      O2144   1.372       .  S
C2140      C2141   1.409       .  A
C2140      H2145   1.083       .  S
C2141      C2142   1.415       .  A
C2142      O2146   1.372       .  S
C2143      C2148   1.403       .  A
C2143      C2152   1.402       .  A
O2144      H2160   0.992       .  S
O2146      H2157   0.992       .  S
C2148      C2149   1.404       .  A
C2148      O2153   1.372       .  S
C2149      C2150   1.416       .  A
C2149      H2154   1.076       .  S
C2150      C2151   1.417       .  A
C2151      C2152   1.402       .  A
C2151      O2155   1.372       .  S
C2152      H2156   1.084       .  S
O2153      H2158   0.992       .  S
O2155      H2159   0.992       .  S
C2161      C2162   1.409       .  A
C2161      C2166   1.404       .  A
C2161      H2171   1.083       .  S
C2162      C2167   1.495       .  S
C2162      C2163   1.410       .  A
C2163      C2164   1.402       .  A
C2163      O2168   1.372       .  S
C2164      C2165   1.407       .  A
C2164      H2169   1.084       .  S
C2165      C2166   1.407       .  A
C2166      O2170   1.371       .  S
C2167      C2172   1.411       .  A
C2167      C2176   1.410       .  A
O2168      H2184   0.992       .  S
O2170      H2181   0.991       .  S
C2172      C2173   1.401       .  A
C2172      O2177   1.372       .  S
C2173      C2174   1.401       .  A
C2173      H2178   1.084       .  S
C2174      C2175   1.404       .  A
C2175      C2176   1.404       .  A
C2175      O2179   1.372       .  S
C2176      H2180   1.083       .  S
O2177      H2182   0.992       .  S
O2179      H2183   0.992       .  S
C2185      C2186   1.400       .  A
C2185      C2190   1.398       .  A
C2185      H2195   1.084       .  S
C2186      C2191   1.483       .  S
C2186      C2187   1.409       .  A
C2187      C2188   1.407       .  A
C2187      O2192   1.371       .  S
C2188      C2189   1.406       .  A
C2188      H2193   1.083       .  S
C2189      C2190   1.415       .  A
C2190      O2194   1.372       .  S
C2191      C2196   1.410       .  A
C2191      C2200   1.400       .  A
O2192      H2208   0.992       .  S
O2194      H2205   0.992       .  S
C2196      C2197   1.406       .  A
C2196      O2201   1.372       .  S
C2197      C2198   1.406       .  A
C2197      H2202   1.083       .  S
C2198      C2199   1.415       .  A
C2199      C2200   1.400       .  A
C2199      O2203   1.372       .  S
C2200      H2204   1.084       .  S
O2201      H2206   0.992       .  S
O2203      H2207   0.992       .  S
C2209      C2210   1.400       .  A
C2209      C2214   1.401       .  A
C2209      H2219   1.084       .  S
C2210      C2215   1.475       .  S
C2210      C2211   1.403       .  A
C2211      C2212   1.397       .  A
C2211      O2216   1.372       .  S
C2212      C2213   1.408       .  A
C2212      H2217   1.083       .  S
C2213      C2214   1.418       .  A
C2214      O2218   1.372       .  S
C2215      C2220   1.407       .  A
C2215      C2224   1.403       .  A
O2216      H2232   0.992       .  S
O2218      H2229   0.992       .  S
C2220      C2221   1.398       .  A
C2220      O2225   1.371       .  S
C2221      C2222   1.401       .  A
C2221      H2226   1.084       .  S
C2222      C2223   1.406       .  A
C2223      C2224   1.400       .  A
C2223      O2227   1.371       .  S
C2224      H2228   1.084       .  S
O2225      H2230   0.992       .  S
O2227      H2231   0.992       .  S
C2233      C2234   1.400       .  A
C2233      C2238   1.396       .  A
C2233      H2243   1.084       .  S
C2234      C2239   1.473       .  S
C2234      C2235   1.405       .  A
C2235      C2236   1.395       .  A
C2235      O2240   1.372       .  S
C2236      C2237   1.407       .  A
C2236      H2241   1.083       .  S
C2237      C2238   1.417       .  A
C2238      O2242   1.372       .  S
C2239      C2244   1.407       .  A
C2239      C2248   1.404       .  A
O2240      H2256   0.992       .  S
O2242      H2253   0.992       .  S
C2244      C2245   1.396       .  A
C2244      O2249   1.372       .  S
C2245      C2246   1.402       .  A
C2245      H2250   1.084       .  S
C2246      C2247   1.405       .  A
C2247      C2248   1.396       .  A
C2247      O2251   1.371       .  S
C2248      H2252   1.084       .  S
O2249      H2254   0.992       .  S
O2251      H2255   0.992       .  S
C2257      C2258   1.402       .  A
C2257      C2262   1.394       .  A
C2257      H2267   1.084       .  S
C2258      C2263   1.472       .  S
C2258      C2259   1.409       .  A
C2259      C2260   1.400       .  A
C2259      O2264   1.372       .  S
C2260      C2261   1.401       .  A
C2260      H2265   1.084       .  S
C2261      C2262   1.404       .  A
C2262      O2266   1.372       .  S
C2263      C2268   1.405       .  A
C2263      C2272   1.400       .  A
O2264      H2280   0.992       .  S
O2266      H2277   0.992       .  S
C2268      C2269   1.397       .  A
C2268      O2273   1.372       .  S
C2269      C2270   1.409       .  A
C2269      H2274   1.083       .  S
C2270      C2271   1.413       .  A
C2271      C2272   1.396       .  A
C2271      O2275   1.372       .  S
C2272      H2276   1.084       .  S
O2273      H2278   0.992       .  S
O2275      H2279   0.992       .  S
C2281      C2282   1.401       .  A
C2281      C2286   1.397       .  A
C2281      H2291   1.083       .  S
C2282      C2287   1.477       .  S
C2282      C2283   1.406       .  A
C2283      C2284   1.397       .  A
C2283      O2288   1.372       .  S
C2284      C2285   1.407       .  A
C2284      H2289   1.083       .  S
C2285      C2286   1.416       .  A
C2286      O2290   1.372       .  S
C2287      C2292   1.409       .  A
C2287      C2296   1.404       .  A
O2288      H2304   0.992       .  S
O2290      H2301   0.992       .  S
C2292      C2293   1.397       .  A
C2292      O2297   1.372       .  S
C2293      C2294   1.401       .  A
C2293      H2298   1.084       .  S
C2294      C2295   1.405       .  A
C2295      C2296   1.397       .  A
C2295      O2299   1.371       .  S
C2296      H2300   1.084       .  S
O2297      H2302   0.992       .  S
O2299      H2303   0.992       .  S
C2305      C2306   1.402       .  A
C2305      C2310   1.407       .  A
C2305      H2315   1.083       .  S
C2306      C2311   1.489       .  S
C2306      C2307   1.406       .  A
C2307      C2308   1.400       .  A
C2307      O2312   1.372       .  S
C2308      C2309   1.413       .  A
C2308      H2313   1.077       .  S
C2309      C2310   1.420       .  A
C2310      O2314   1.371       .  S
C2311      C2316   1.410       .  A
C2311      C2320   1.404       .  A
O2312      H2328   0.992       .  S
O2314      H2325   0.992       .  S
C2316      C2317   1.406       .  A
C2316      O2321   1.371       .  S
C2317      C2318   1.405       .  A
C2317      H2322   1.084       .  S
C2318      C2319   1.409       .  A
C2319      C2320   1.400       .  A
C2319      O2323   1.372       .  S
C2320      H2324   1.084       .  S
O2321      H2326   0.992       .  S
O2323      H2327   0.992       .  S
C2329      C2330   1.406       .  A
C2329      C2334   1.410       .  A
C2329      H2339   1.083       .  S
C2330      C2335   1.491       .  S
C2330      C2331   1.407       .  A
C2331      C2332   1.396       .  A
C2331      O2336   1.372       .  S
C2332      C2333   1.408       .  A
C2332      H2337   1.083       .  S
C2333      C2334   1.418       .  A
C2334      O2338   1.371       .  S
C2335      C2340   1.410       .  A
C2335      C2344   1.403       .  A
O2336      H2352   0.992       .  S
O2338      H2349   0.992       .  S
C2340      C2341   1.409       .  A
C2340      O2345   1.371       .  S
C2341      C2342   1.406       .  A
C2341      H2346   1.083       .  S
C2342      C2343   1.412       .  A
C2343      C2344   1.398       .  A
C2343      O2347   1.372       .  S
C2344      H2348   1.084       .  S
O2345      H2350   0.991       .  S
O2347      H2351   0.992       .  S
C2353      C2354   1.409       .  A
C2353      C2358   1.413       .  A
C2353      H2363   1.083       .  S
C2354      C2359   1.499       .  S
C2354      C2355   1.407       .  A
C2355      C2356   1.401       .  A
C2355      O2360   1.372       .  S
C2356      C2357   1.413       .  A
C2356      H2361   1.083       .  S
C2357      C2358   1.415       .  A
C2358      O2362   1.371       .  S
C2359      C2364   1.411       .  A
C2359      C2368   1.404       .  A
O2360      H2376   0.992       .  S
O2362      H2373   0.992       .  S
C2364      C2365   1.411       .  A
C2364      O2369   1.371       .  S
C2365      C2366   1.407       .  A
C2365      H2370   1.079       .  S
C2366      C2367   1.413       .  A
C2367      C2368   1.402       .  A
C2367      O2371   1.372       .  S
C2368      H2372   1.083       .  S
O2369      H2374   0.992       .  S
O2371      H2375   0.992       .  S
C2377      C2378   1.403       .  A
C2377      C2382   1.401       .  A
C2377      H2387   1.083       .  S
C2378      C2383   1.497       .  S
C2378      C2379   1.415       .  A
C2379      C2380   1.407       .  A
C2379      O2384   1.371       .  S
C2380      C2381   1.402       .  A
C2380      H2385   1.083       .  S
C2381      C2382   1.414       .  A
C2382      O2386   1.372       .  S
C2383      C2388   1.414       .  A
C2383      C2392   1.403       .  A
O2384      H2400   0.991       .  S
O2386      H2397   0.992       .  S
C2388      C2389   1.409       .  A
C2388      O2393   1.372       .  S
C2389      C2390   1.405       .  A
C2389      H2394   1.083       .  S
C2390      C2391   1.416       .  A
C2391      C2392   1.401       .  A
C2391      O2395   1.372       .  S
C2392      H2396   1.084       .  S
O2393      H2398   0.992       .  S
O2395      H2399   0.992       .  S
O2401     Zr2437   2.477       .  S
O2401      C2412   1.300       .  A
O2402     Zr2436   2.467       .  S
O2402      C2413   1.298       .  A
O2403     Zr2409   2.425       .  S
O2403      C2414   1.289       .  A
O2404     Zr2409   2.427       .  S
O2404      C2415   1.289       .  A
O2405     Zr2439   2.423       .  S
O2405      C2415   1.290       .  A
O2406     Zr2438   2.435       .  S
O2406      C2414   1.292       .  A
O2407     Zr2409   2.442       .  S
O2407      C2413   1.293       .  A
O2408     Zr2409   2.423       .  S
O2408      C2412   1.290       .  A
Zr2409     O2410   2.337       .  S
Zr2409     O2411   2.337       .  S
Zr2409     O2419   2.344       .  S
Zr2409     O2417   2.337       .  S
O2410     Zr2436   2.350       .  S
O2410     Zr2439   2.338       .  S
O2411     Zr2437   2.355       .  S
O2411     Zr2438   2.328       .  S
C2412      C3190   1.491       .  S
C2413      C2965   1.491       .  S
C2414      C3013   1.488       .  S
C2415      C3037   1.482       .  S
H2416      O2417   0.966       .  S
O2417     Zr2436   2.357       .  S
O2417     Zr2438   2.337       .  S
H2418      O2419   0.966       .  S
O2419     Zr2437   2.351       .  S
O2419     Zr2439   2.331       .  S
O2420     Zr2436   2.462       .  S
O2420      C2443   1.297       .  A
O2421     Zr2437   2.489       .  S
O2421      C2444   1.302       .  A
O2422     Zr2438   2.430       .  S
O2422      C2445   1.291       .  A
O2423     Zr2439   2.425       .  S
O2423      C2446   1.291       .  A
O2424     Zr2439   2.435       .  S
O2424      C2447   1.292       .  A
O2425     Zr2438   2.432       .  S
O2425      C2448   1.293       .  A
O2426     Zr2440   2.441       .  S
O2426      C2449   1.292       .  A
O2427     Zr2440   2.425       .  S
O2427      C2450   1.290       .  A
O2428     Zr2438   2.419       .  S
O2428      C2449   1.289       .  A
O2429     Zr2439   2.415       .  S
O2429      C2450   1.288       .  A
O2430     Zr2436   2.461       .  S
O2430      C2445   1.297       .  A
O2431     Zr2437   2.452       .  S
O2431      C2448   1.295       .  A
O2432     Zr2437   2.461       .  S
O2432      C2447   1.296       .  A
O2433     Zr2436   2.472       .  S
O2433      C2446   1.298       .  A
O2434     Zr2440   2.423       .  S
O2434      C2443   1.290       .  A
O2435     Zr2440   2.433       .  S
O2435      C2444   1.292       .  A
Zr2436     O2442   2.353       .  S
Zr2436     O2454   2.346       .  S
Zr2437     O2441   2.347       .  S
Zr2437     O2452   2.350       .  S
Zr2438     O2442   2.334       .  S
Zr2438     O2452   2.340       .  S
Zr2439     O2441   2.335       .  S
Zr2439     O2454   2.334       .  S
Zr2440     O2441   2.339       .  S
Zr2440     O2442   2.332       .  S
Zr2440     O2454   2.341       .  S
Zr2440     O2452   2.332       .  S
C2443      C2998   1.482       .  S
C2444      C3157   1.508       .  S
C2445      C2917   1.490       .  S
C2446      C2941   1.499       .  S
C2447      C3118   1.482       .  S
C2448      C3133   1.493       .  S
C2449      C3085   1.486       .  S
C2450      C3070   1.476       .  S
H2451      O2452   0.966       .  S
H2453      O2454   0.966       .  S
N2455      H2487   1.040       .  S
N2455      C2459   1.350       .  A
N2456      C2464   1.349   1_455  A
N2457      H2488   1.039       .  S
N2457      C2461   1.352       .  A
N2458      C2466   1.349   1_455  A
C2459      C2467   1.387       .  A
C2459      C2475   1.409       .  A
C2460      C2476   1.407       .  A
C2460      C2468   1.387       .  A
C2461      C2469   1.387       .  A
C2461      C2478   1.411       .  A
C2462      C2477   1.412       .  A
C2462      C2470   1.387       .  A
C2463      C2475   1.405       .  A
C2463      C2471   1.385       .  A
C2464      C2478   1.407       .  A
C2464      C2472   1.386       .  A
C2465      C2473   1.386       .  A
C2465      C2476   1.406       .  A
C2466      C2474   1.386   1_655  A
C2466      C2477   1.408       .  A
C2467      H2479   1.083       .  S
C2468      H2480   1.083       .  S
C2469      H2481   1.082       .  S
C2470      H2482   1.083       .  S
C2471      H2483   1.082       .  S
C2472      H2484   1.082       .  S
C2473      H2485   1.082       .  S
C2474      H2486   1.082   1_455  S
C2475      C3046   1.475       .  S
C2476      C3061   1.470       .  S
C2477      C3094   1.478       .  S
C2478      C3022   1.477       .  S
O2489     Zr2525   2.470       .  S
O2489      C2500   1.299       .  A
O2490     Zr2524   2.488       .  S
O2490      C2501   1.302       .  A
O2491      C2502   1.293       .  A
O2492     Zr2497   2.417       .  S
O2492      C2503   1.288       .  A
O2493     Zr2527   2.433       .  S
O2493      C2503   1.291       .  A
O2494     Zr2526   2.420       .  S
O2494      C2502   1.289       .  A
O2495     Zr2497   2.435   1_554  S
O2495      C2501   1.292       .  A
O2496     Zr2497   2.434       .  S
O2496      C2500   1.292       .  A
Zr2497     O2498   2.337   1_556  S
Zr2497     O2507   2.342       .  S
O2498     Zr2524   2.352       .  S
O2498     Zr2527   2.336   1_554  S
O2499     Zr2526   2.335       .  S
C2500      C2902   1.488       .  S
C2501      C2677   1.499       .  S
C2502      C2734   1.483   1_556  S
C2503      C2749   1.473   1_556  S
H2504      O2505   0.965       .  S
O2505     Zr2526   2.339   1_554  S
H2506      O2507   0.967       .  S
O2507     Zr2525   2.353       .  S
O2507     Zr2527   2.339       .  S
O2508      C2531   1.298       .  A
O2509      C2532   1.300       .  A
O2510     Zr2526   2.411   1_554  S
O2510      C2533   1.288       .  A
O2511     Zr2527   2.430   1_554  S
O2511      C2534   1.292       .  A
O2512     Zr2527   2.438       .  S
O2513     Zr2526   2.415       .  S
O2514      C2537   1.291       .  A
O2515     Zr2528   2.442       .  S
O2515      C2538   1.292       .  A
O2516      C2537   1.291       .  A
O2517      C2538   1.289       .  A
O2518      C2533   1.298       .  A
O2519      C2536   1.299       .  A
O2520      C2535   1.298       .  A
O2521     Zr2524   2.466       .  S
O2521      C2534   1.298       .  A
O2522     Zr2528   2.429       .  S
O2522      C2531   1.292       .  A
O2523     Zr2528   2.419   1_556  S
O2523      C2532   1.290       .  A
Zr2528     O2529   2.337   1_554  S
Zr2528     O2542   2.335       .  S
C2531      C2701   1.489       .  S
C2532      C2869   1.499       .  S
C2533      C2629   1.494       .  S
C2534      C2662   1.495       .  S
C2535      C2821   1.496       .  S
C2536      C2845   1.497       .  S
C2537      C2797   1.484       .  S
C2538      C2773   1.487       .  S
H2539      O2540   0.965       .  S
H2541      O2542   0.967       .  S
N2543      H2575   1.040       .  S
N2543      C2548   1.352       .  A
N2543      C2547   1.352       .  A
N2544      C2551   1.349       .  A
N2544      C2552   1.349       .  A
N2545      H2576   1.039       .  S
N2545      C2550   1.353       .  A
N2545      C2549   1.351       .  A
N2546      C2553   1.349       .  A
N2546      C2554   1.350       .  A
C2547      C2555   1.387       .  A
C2547      C2563   1.411       .  A
C2548      C2564   1.413       .  A
C2548      C2556   1.387       .  A
C2549      C2557   1.387       .  A
C2549      C2566   1.412       .  A
C2550      C2565   1.413       .  A
C2550      C2558   1.387       .  A
C2551      C2563   1.409       .  A
C2551      C2559   1.386       .  A
C2552      C2566   1.409       .  A
C2552      C2560   1.386       .  A
C2553      C2561   1.386       .  A
C2553      C2564   1.409       .  A
C2554      C2562   1.386       .  A
C2554      C2565   1.410       .  A
C2555      C2556   1.374       .  A
C2555      H2567   1.082   1_554  S
C2556      H2568   1.082   1_554  S
C2557      C2558   1.375       .  A
C2557      H2569   1.082   1_554  S
C2558      H2570   1.082   1_554  S
C2559      C2560   1.373       .  A
C2559      H2571   1.083       .  S
C2560      H2572   1.082       .  S
C2561      C2562   1.372       .  A
C2561      H2573   1.082       .  S
C2562      H2574   1.082       .  S
C2563      C2758   1.478       .  S
C2564      C2782   1.483       .  S
C2565      C2806   1.485       .  S
C2566      C2725   1.477       .  S
C2577      C2578   1.534       .  S
C2577      C2581   1.542       .  S
C2577      C3109   1.547       .  S
C2578      H2585   1.085       .  S
C2579      C2580   1.546   1_455  S
C2579      C2710   1.497       .  S
C2580      C2584   1.533       .  S
C2580      C2582   1.550   1_655  S
C2580      H2586   1.107       .  S
C2581      H2587   1.085       .  S
C2582      C2686   1.509       .  S
C2583      H2588   1.080       .  S
C2583      C2584   1.365   1_455  D
C2584      C3142   1.481       .  S
C2589      C2590   1.536   1_545  S
C2589      C2595   1.543       .  S
C2589      C2638   1.542   1_545  S
C2590      H2597   1.086       .  S
C2590      C2591   1.364       .  D
C2591      C2592   1.548   1_565  S
C2591      C3166   1.490       .  S
C2592      C2596   1.543       .  S
C2592      H2598   1.110       .  S
C2593      H2599   1.081       .  S
C2593      C2594   1.367       .  D
C2594      C3181   1.494       .  S
C2595      H2600   1.086       .  S
C2595      C2596   1.372       .  D
C2596      C2653   1.493       .  S
C2601      C2602   1.539       .  S
C2601      C2605   1.544       .  S
C2601      C2950   1.544       .  S
C2602      H2609   1.086       .  S
C2603      C2604   1.541   1_455  S
C2603      C2893   1.483       .  S
C2604      C2608   1.545       .  S
C2604      C2606   1.541   1_655  S
C2604      H2610   1.109       .  S
C2605      H2611   1.080       .  S
C2606      C2878   1.492   1_455  S
C2607      H2612   1.086       .  S
C2607      C2608   1.372   1_455  D
C2608      C2926   1.496       .  S
C2613      C2619   1.543       .  S
C2613      C2617   1.539       .  S
C2613      C2854   1.542   1_565  S
C2614      H2621   1.086       .  S
C2614      C2615   1.364       .  D
C2615      C2974   1.485       .  S
C2616      C2620   1.548       .  S
C2616      C2618   1.543       .  S
C2616      H2622   1.110       .  S
C2617      H2623   1.079       .  S
C2617      C2618   1.362       .  D
C2618      C2989   1.490       .  S
C2619      H2624   1.086       .  S
C2619      C2620   1.376       .  D
C2620      C2830   1.498       .  S
C2625      C2626   1.405       .  A
C2625      C2630   1.406       .  A
C2625      H2635   1.083       .  S
C2626      C2631   1.482       .  S
C2627      C2628   1.396       .  A
C2627      O2632   1.372       .  S
C2628      H2633   1.083       .  S
C2629      C2630   1.414       .  A
C2630      O2634   1.371       .  S
C2631      C2640   1.401       .  A
O2632      H2648   0.992       .  S
O2634      H2645   0.992       .  S
C2636      C2637   1.402       .  A
C2636      O2641   1.372       .  S
C2637      H2642   1.076       .  S
C2638      C2639   1.417       .  A
C2639      C2640   1.403       .  A
C2639      O2643   1.372       .  S
C2640      H2644   1.084       .  S
O2641      H2646   0.992       .  S
O2643      H2647   0.992       .  S
C2649      C2654   1.399       .  A
C2649      H2659   1.084       .  S
C2650      C2655   1.488       .  S
C2650      C2651   1.407       .  A
C2651      C2652   1.405       .  A
C2651      O2656   1.371       .  S
C2652      C2653   1.406   1_565  A
C2652      H2657   1.082       .  S
C2654      O2658   1.372       .  S
C2655      C2660   1.405       .  A
O2656      H2672   0.992       .  S
O2658      H2669   0.992       .  S
C2660      C2661   1.396       .  A
C2660      O2665   1.372       .  S
C2661      C2662   1.409       .  A
C2661      H2666   1.083       .  S
C2663      C2664   1.407       .  A
C2663      O2667   1.371       .  S
C2664      H2668   1.083       .  S
O2665      H2670   0.992       .  S
O2667      H2671   0.992       .  S
C2673      C2678   1.408       .  A
C2673      H2683   1.083       .  S
C2674      C2679   1.498       .  S
C2674      C2675   1.408       .  A
C2675      C2676   1.406       .  A
C2675      O2680   1.372       .  S
C2676      C2677   1.411       .  A
C2676      H2681   1.084       .  S
C2678      O2682   1.371       .  S
C2679      C2688   1.405       .  A
O2680      H2696   0.992       .  S
O2682      H2693   0.992       .  S
C2684      C2685   1.404       .  A
C2684      O2689   1.372       .  S
C2685      H2690   1.083       .  S
C2686      C2687   1.418   1_455  A
C2687      C2688   1.410       .  A
C2687      O2691   1.370       .  S
C2688      H2692   1.083       .  S
O2689      H2694   0.992       .  S
O2691      H2695   0.992       .  S
C2697      C2698   1.408       .  A
C2697      C2702   1.409       .  A
C2697      H2707   1.083       .  S
C2698      C2703   1.492       .  S
C2699      C2700   1.402       .  A
C2699      O2704   1.373       .  S
C2700      H2705   1.084       .  S
C2701      C2702   1.411       .  A
C2702      O2706   1.371       .  S
C2703      C2708   1.411       .  A
O2704      H2720   0.992       .  S
O2706      H2717   0.992       .  S
C2708      C2709   1.403       .  A
C2708      O2713   1.371       .  S
C2709      C2710   1.404   1_655  A
C2709      H2714   1.083       .  S
C2711      C2712   1.402       .  A
C2711      O2715   1.371       .  S
C2712      H2716   1.083       .  S
O2713      H2718   0.991       .  S
O2715      H2719   0.992       .  S
C2721      C2722   1.405   1_556  A
C2721      C2726   1.397       .  A
C2721      H2731   1.083       .  S
C2722      C2727   1.479       .  S
C2722      C2723   1.410       .  A
C2723      C2724   1.397       .  A
C2723      O2728   1.372       .  S
C2724      C2725   1.399       .  A
C2724      H2729   1.084       .  S
C2725      C2726   1.405   1_554  A
C2726      O2730   1.372       .  S
C2727      C2732   1.406   1_554  A
C2727      C2736   1.402       .  A
O2728      H2744   0.992       .  S
O2730      H2741   0.992       .  S
C2732      C2733   1.398       .  A
C2732      O2737   1.372       .  S
C2733      C2734   1.408   1_556  A
C2733      H2738   1.084       .  S
C2734      C2735   1.412       .  A
C2735      C2736   1.399       .  A
C2735      O2739   1.372       .  S
C2736      H2740   1.084       .  S
O2737      H2742   0.992       .  S
O2739      H2743   0.992       .  S
C2745      C2746   1.399   1_556  A
C2745      C2750   1.397       .  A
C2745      H2755   1.084       .  S
C2746      C2751   1.466       .  S
C2746      C2747   1.403       .  A
C2747      C2748   1.396       .  A
C2747      O2752   1.371       .  S
C2748      C2749   1.404       .  A
C2748      H2753   1.084       .  S
C2749      C2750   1.413   1_554  A
C2750      O2754   1.372       .  S
C2751      C2756   1.404   1_554  A
C2751      C2760   1.401       .  A
O2752      H2768   0.992       .  S
O2754      H2765   0.992       .  S
C2756      C2757   1.396       .  A
C2756      O2761   1.372       .  S
C2757      C2758   1.402   1_556  A
C2757      H2762   1.084       .  S
C2758      C2759   1.406       .  A
C2759      C2760   1.398       .  A
C2759      O2763   1.371       .  S
C2760      H2764   1.084       .  S
O2761      H2766   0.991       .  S
O2763      H2767   0.992       .  S
C2769      C2770   1.401       .  A
C2769      C2774   1.398       .  A
C2769      H2779   1.084       .  S
C2770      C2775   1.476       .  S
C2770      C2771   1.404       .  A
C2771      C2772   1.397       .  A
C2771      O2776   1.372       .  S
C2772      C2773   1.411       .  A
C2772      H2777   1.083       .  S
C2773      C2774   1.414       .  A
C2774      O2778   1.371   1_554  S
C2775      C2780   1.407       .  A
C2775      C2784   1.403   1_554  A
O2776      H2792   0.992       .  S
O2778      H2789   0.992       .  S
C2780      C2781   1.398       .  A
C2780      O2785   1.372       .  S
C2781      C2782   1.401       .  A
C2781      H2786   1.084       .  S
C2782      C2783   1.408   1_554  A
C2783      C2784   1.398       .  A
C2783      O2787   1.372       .  S
C2784      H2788   1.084       .  S
O2785      H2790   0.992       .  S
O2787      H2791   0.992       .  S
C2793      C2794   1.400   1_556  A
C2793      C2798   1.400       .  A
C2793      H2803   1.084       .  S
C2794      C2799   1.473       .  S
C2794      C2795   1.404       .  A
C2795      C2796   1.399       .  A
C2795      O2800   1.372       .  S
C2796      C2797   1.408       .  A
C2796      H2801   1.084       .  S
C2797      C2798   1.414   1_554  A
C2798      O2802   1.372       .  S
C2799      C2804   1.406   1_554  A
C2799      C2808   1.402       .  A
O2800      H2816   0.992       .  S
O2802      H2813   0.992   1_556  S
C2804      C2805   1.398       .  A
C2804      O2809   1.372       .  S
C2805      C2806   1.404   1_556  A
C2805      H2810   1.084       .  S
C2806      C2807   1.407       .  A
C2807      C2808   1.400       .  A
C2807      O2811   1.372       .  S
C2808      H2812   1.084       .  S
O2809      H2814   0.992       .  S
O2811      H2815   0.992       .  S
C2817      C2822   1.397       .  A
C2817      H2827   1.084       .  S
C2818      C2823   1.492   1_545  S
C2818      C2819   1.410   1_545  A
C2819      C2820   1.411       .  A
C2819      O2824   1.371       .  S
C2820      H2825   1.083       .  S
C2821      C2822   1.418       .  A
C2822      O2826   1.372       .  S
C2823      C2828   1.408       .  A
O2824      H2840   0.992       .  S
O2826      H2837   0.992       .  S
C2828      C2829   1.402       .  A
C2828      O2833   1.372       .  S
C2829      C2830   1.405       .  A
C2829      H2834   1.083       .  S
C2831      C2832   1.407       .  A
C2831      O2835   1.371       .  S
C2832      H2836   1.083       .  S
O2833      H2838   0.992       .  S
O2835      H2839   0.991       .  S
C2841      C2846   1.408       .  A
C2841      H2851   1.083       .  S
C2842      C2847   1.491       .  S
C2842      C2843   1.405       .  A
C2843      C2844   1.396       .  A
C2843      O2848   1.372       .  S
C2844      H2849   1.083       .  S
C2845      C2846   1.413       .  A
C2846      O2850   1.371       .  S
C2847      C2852   1.403   1_545  A
O2848      H2864   0.992   1_545  S
O2850      H2861   0.991       .  S
C2852      C2853   1.398       .  A
C2852      O2857   1.372       .  S
C2853      C2854   1.415   1_565  A
C2853      H2858   1.075       .  S
C2855      C2856   1.405       .  A
C2855      O2859   1.372       .  S
C2856      H2860   1.084       .  S
O2857      H2862   0.992       .  S
O2859      H2863   0.992       .  S
C2865      C2870   1.407       .  A
C2865      H2875   1.083       .  S
C2866      C2871   1.485       .  S
C2866      C2867   1.402       .  A
C2867      C2868   1.399       .  A
C2867      O2872   1.372       .  S
C2868      C2869   1.413       .  A
C2868      H2873   1.083       .  S
C2870      O2874   1.371       .  S
C2871      C2880   1.404       .  A
O2872      H2888   0.992       .  S
O2874      H2885   0.992       .  S
C2876      C2877   1.400       .  A
C2876      O2881   1.372       .  S
C2877      H2882   1.084       .  S
C2878      C2879   1.412       .  A
C2879      C2880   1.407       .  A
C2879      O2883   1.371       .  S
C2880      H2884   1.083       .  S
O2881      H2886   0.992       .  S
O2883      H2887   0.992       .  S
C2889      C2894   1.403       .  A
C2889      H2899   1.082       .  S
C2890      C2895   1.502       .  S
C2890      C2891   1.415       .  A
C2891      C2892   1.404       .  A
C2891      O2896   1.371       .  S
C2892      C2893   1.403   1_655  A
C2892      H2897   1.084       .  S
C2894      O2898   1.372       .  S
C2895      C2900   1.413       .  A
O2896      H2912   0.992       .  S
O2898      H2909   0.992       .  S
C2900      C2901   1.404       .  A
C2900      O2905   1.373       .  S
C2901      C2902   1.406       .  A
C2901      H2906   1.082       .  S
C2903      C2904   1.406       .  A
C2903      O2907   1.372       .  S
C2904      H2908   1.083       .  S
O2905      H2910   0.992       .  S
O2907      H2911   0.992       .  S
C2913      C2914   1.399       .  A
C2913      C2918   1.396       .  A
C2913      H2923   1.084       .  S
C2914      C2919   1.485       .  S
C2914      C2915   1.409       .  A
C2915      C2916   1.408       .  A
C2915      O2920   1.371       .  S
C2916      C2917   1.408       .  A
C2916      H2921   1.083       .  S
C2917      C2918   1.416       .  A
C2918      O2922   1.372       .  S
C2919      C2924   1.408       .  A
C2919      C2928   1.402       .  A
O2920      H2936   0.992       .  S
O2922      H2933   0.992       .  S
C2924      C2925   1.402       .  A
C2924      O2929   1.372       .  S
C2925      C2926   1.407       .  A
C2925      H2930   1.083       .  S
C2926      C2927   1.414       .  A
C2927      C2928   1.404       .  A
C2927      O2931   1.371       .  S
C2928      H2932   1.083       .  S
O2929      H2934   0.992       .  S
O2931      H2935   0.992       .  S
C2937      C2938   1.407       .  A
C2937      C2942   1.410       .  A
C2937      H2947   1.083       .  S
C2938      C2943   1.488       .  S
C2938      C2939   1.403       .  A
C2939      C2940   1.396       .  A
C2939      O2944   1.372       .  S
C2940      C2941   1.411       .  A
C2940      H2945   1.083       .  S
C2941      C2942   1.416       .  A
C2942      O2946   1.371       .  S
C2943      C2948   1.404       .  A
C2943      C2952   1.402       .  A
O2944      H2960   0.992       .  S
O2946      H2957   0.992       .  S
C2948      C2949   1.404       .  A
C2948      O2953   1.372       .  S
C2949      C2950   1.417       .  A
C2949      H2954   1.075       .  S
C2950      C2951   1.417       .  A
C2951      C2952   1.403       .  A
C2951      O2955   1.372       .  S
C2952      H2956   1.084       .  S
O2953      H2958   0.992       .  S
O2955      H2959   0.992       .  S
C2961      C2962   1.409       .  A
C2961      C2966   1.407       .  A
C2961      H2971   1.082       .  S
C2962      C2967   1.501       .  S
C2962      C2963   1.412       .  A
C2963      C2964   1.404       .  A
C2963      O2968   1.372       .  S
C2964      C2965   1.407       .  A
C2964      H2969   1.084       .  S
C2965      C2966   1.410       .  A
C2966      O2970   1.371       .  S
C2967      C2972   1.413       .  A
C2967      C2976   1.411       .  A
O2968      H2984   0.992       .  S
O2970      H2981   0.991       .  S
C2972      C2973   1.405       .  A
C2972      O2977   1.372       .  S
C2973      C2974   1.402       .  A
C2973      H2978   1.084       .  S
C2974      C2975   1.405       .  A
C2975      C2976   1.406       .  A
C2975      O2979   1.371       .  S
C2976      H2980   1.083       .  S
O2977      H2982   0.992       .  S
O2979      H2983   0.992       .  S
C2985      C2986   1.400       .  A
C2985      C2990   1.397       .  A
C2985      H2995   1.084       .  S
C2986      C2991   1.482       .  S
C2986      C2987   1.409       .  A
C2987      C2988   1.405       .  A
C2987      O2992   1.371       .  S
C2988      C2989   1.404       .  A
C2988      H2993   1.083       .  S
C2989      C2990   1.416       .  A
C2990      O2994   1.372       .  S
C2991      C2996   1.410       .  A
C2991      C3000   1.400       .  A
O2992      H3008   0.992       .  S
O2994      H3005   0.992       .  S
C2996      C2997   1.404       .  A
C2996      O3001   1.372       .  S
C2997      C2998   1.405       .  A
C2997      H3002   1.084       .  S
C2998      C2999   1.414       .  A
C2999      C3000   1.398       .  A
C2999      O3003   1.372       .  S
C3000      H3004   1.084       .  S
O3001      H3006   0.992       .  S
O3003      H3007   0.992       .  S
C3009      C3010   1.400       .  A
C3009      C3014   1.401       .  A
C3009      H3019   1.084       .  S
C3010      C3015   1.472       .  S
C3010      C3011   1.402       .  A
C3011      C3012   1.396       .  A
C3011      O3016   1.372       .  S
C3012      C3013   1.408       .  A
C3012      H3017   1.083       .  S
C3013      C3014   1.418       .  A
C3014      O3018   1.372       .  S
C3015      C3020   1.407       .  A
C3015      C3024   1.403       .  A
O3016      H3032   0.992       .  S
O3018      H3029   0.992       .  S
C3020      C3021   1.396       .  A
C3020      O3025   1.372       .  S
C3021      C3022   1.400       .  A
C3021      H3026   1.084       .  S
C3022      C3023   1.406       .  A
C3023      C3024   1.399       .  A
C3023      O3027   1.371       .  S
C3024      H3028   1.084       .  S
O3025      H3030   0.992       .  S
O3027      H3031   0.992       .  S
C3033      C3034   1.400       .  A
C3033      C3038   1.397       .  A
C3033      H3043   1.084       .  S
C3034      C3039   1.469       .  S
C3034      C3035   1.402       .  A
C3035      C3036   1.394       .  A
C3035      O3040   1.372       .  S
C3036      C3037   1.409       .  A
C3036      H3041   1.083       .  S
C3037      C3038   1.415       .  A
C3038      O3042   1.372       .  S
C3039      C3044   1.406       .  A
C3039      C3048   1.402       .  A
O3040      H3056   0.992       .  S
O3042      H3053   0.992       .  S
C3044      C3045   1.396       .  A
C3044      O3049   1.372       .  S
C3045      C3046   1.401       .  A
C3045      H3050   1.084       .  S
C3046      C3047   1.406       .  A
C3047      C3048   1.395       .  A
C3047      O3051   1.371       .  S
C3048      H3052   1.084       .  S
O3049      H3054   0.992       .  S
O3051      H3055   0.992       .  S
C3057      C3058   1.402       .  A
C3057      C3062   1.394       .  A
C3057      H3067   1.084       .  S
C3058      C3063   1.468       .  S
C3058      C3059   1.407       .  A
C3059      C3060   1.396       .  A
C3059      O3064   1.373       .  S
C3060      C3061   1.399       .  A
C3060      H3065   1.084       .  S
C3061      C3062   1.403       .  A
C3062      O3066   1.372       .  S
C3063      C3068   1.405       .  A
C3063      C3072   1.399       .  A
O3064      H3080   0.992       .  S
O3066      H3077   0.992       .  S
C3068      C3069   1.394       .  A
C3068      O3073   1.371       .  S
C3069      C3070   1.407       .  A
C3069      H3074   1.083       .  S
C3070      C3071   1.415       .  A
C3071      C3072   1.393       .  A
C3071      O3075   1.372       .  S
C3072      H3076   1.084       .  S
O3073      H3078   0.992       .  S
O3075      H3079   0.992       .  S
C3081      C3082   1.401       .  A
C3081      C3086   1.398       .  A
C3081      H3091   1.084       .  S
C3082      C3087   1.474       .  S
C3082      C3083   1.403       .  A
C3083      C3084   1.396       .  A
C3083      O3088   1.372       .  S
C3084      C3085   1.410       .  A
C3084      H3089   1.083       .  S
C3085      C3086   1.415       .  A
C3086      O3090   1.372       .  S
C3087      C3092   1.407       .  A
C3087      C3096   1.403       .  A
O3088      H3104   0.992       .  S
O3090      H3101   0.992       .  S
C3092      C3093   1.398       .  A
C3092      O3097   1.372       .  S
C3093      C3094   1.401       .  A
C3093      H3098   1.084       .  S
C3094      C3095   1.406       .  A
C3095      C3096   1.397       .  A
C3095      O3099   1.371       .  S
C3096      H3100   1.084       .  S
O3097      H3102   0.992       .  S
O3099      H3103   0.992       .  S
C3105      C3106   1.403       .  A
C3105      C3110   1.408       .  A
C3105      H3115   1.083       .  S
C3106      C3111   1.493       .  S
C3106      C3107   1.407       .  A
C3107      C3108   1.401       .  A
C3107      O3112   1.373       .  S
C3108      C3109   1.414       .  A
C3108      H3113   1.075       .  S
C3109      C3110   1.419       .  A
C3110      O3114   1.372       .  S
C3111      C3116   1.412       .  A
C3111      C3120   1.405       .  A
O3112      H3128   0.992       .  S
O3114      H3125   0.992       .  S
C3116      C3117   1.408       .  A
C3116      O3121   1.371       .  S
C3117      C3118   1.405       .  A
C3117      H3122   1.084       .  S
C3118      C3119   1.409       .  A
C3119      C3120   1.400       .  A
C3119      O3123   1.372       .  S
C3120      H3124   1.084       .  S
O3121      H3126   0.992       .  S
O3123      H3127   0.992       .  S
C3129      C3130   1.403       .  A
C3129      C3134   1.406       .  A
C3129      H3139   1.083       .  S
C3130      C3135   1.480       .  S
C3130      C3131   1.404       .  A
C3131      C3132   1.394       .  A
C3131      O3136   1.372       .  S
C3132      C3133   1.409       .  A
C3132      H3137   1.083       .  S
C3133      C3134   1.417       .  A
C3134      O3138   1.371       .  S
C3135      C3140   1.408       .  A
C3135      C3144   1.402       .  A
O3136      H3152   0.992       .  S
O3138      H3149   0.992       .  S
C3140      C3141   1.403       .  A
C3140      O3145   1.371       .  S
C3141      C3142   1.403       .  A
C3141      H3146   1.084       .  S
C3142      C3143   1.410       .  A
C3143      C3144   1.397       .  A
C3143      O3147   1.372       .  S
C3144      H3148   1.084       .  S
O3145      H3150   0.992       .  S
O3147      H3151   0.991       .  S
C3153      C3154   1.408       .  A
C3153      C3158   1.412       .  A
C3153      H3163   1.083       .  S
C3154      C3159   1.499       .  S
C3154      C3155   1.407       .  A
C3155      C3156   1.403       .  A
C3155      O3160   1.372       .  S
C3156      C3157   1.413       .  A
C3156      H3161   1.083       .  S
C3157      C3158   1.416       .  A
C3158      O3162   1.371       .  S
C3159      C3164   1.412       .  A
C3159      C3168   1.407       .  A
O3160      H3176   0.992       .  S
O3162      H3173   0.992       .  S
C3164      C3165   1.410       .  A
C3164      O3169   1.371       .  S
C3165      C3166   1.405       .  A
C3165      H3170   1.083       .  S
C3166      C3167   1.407       .  A
C3167      C3168   1.404       .  A
C3167      O3171   1.372       .  S
C3168      H3172   1.083       .  S
O3169      H3174   0.992       .  S
O3171      H3175   0.992       .  S
C3177      C3178   1.404       .  A
C3177      C3182   1.402       .  A
C3177      H3187   1.083       .  S
C3178      C3183   1.497       .  S
C3178      C3179   1.415       .  A
C3179      C3180   1.406       .  A
C3179      O3184   1.371       .  S
C3180      C3181   1.402       .  A
C3180      H3185   1.083       .  S
C3181      C3182   1.414       .  A
C3182      O3186   1.372       .  S
C3183      C3188   1.415       .  A
C3183      C3192   1.402       .  A
O3184      H3200   0.992       .  S
O3186      H3197   0.992       .  S
C3188      C3189   1.411       .  A
C3188      O3193   1.372       .  S
C3189      C3190   1.407       .  A
C3189      H3194   1.083       .  S
C3190      C3191   1.415       .  A
C3191      C3192   1.397       .  A
C3191      O3195   1.372       .  S
C3192      H3196   1.083       .  S
O3193      H3198   0.992       .  S
O3195      H3199   0.992       .  S
