geometry optimzed in LAMMPS
_audit_creation_date              2020-11-30 
_audit_creation_method            'lammps2cif' 
_symmetry_space_group_name_H-M    'P1' 
_symmetry_Int_Tables_number       1 
_symmetry_cell_setting            triclinic 
loop_ 
_symmetry_equiv_pos_as_xyz 
  x,y,z 
_cell_length_a                    39.74846481 
_cell_length_b                    31.491361396995057 
_cell_length_c                    33.84113515353056 
_cell_angle_alpha                 89.98054041566056 
_cell_angle_beta                  89.86666716848555 
_cell_angle_gamma                 90.12849799613203 
loop_ 
_atom_site_label 
_atom_site_type_symbol 
_atom_site_fract_x 
_atom_site_fract_y 
_atom_site_fract_z 
_atom_site_charge 
O1          O  0.33351313  0.94055963  0.42367948    -0.57700
C2          C  0.33551407  0.85579596  0.33740656     0.74900
O3          O  0.40041708  0.82625675  0.43689494    -0.58900
C4          C  0.33797007  0.94408277  0.46055047     0.74900
C5          C  0.29551279  0.81352731  0.46045151     0.77300
Cd6        Cd  0.34642234  0.86418156  0.42118112     1.37500
O7          O  0.32480040  0.88731410  0.35687023    -0.57700
O8          O  0.28866307  0.83997233  0.43356353    -0.56500
C9          C  0.41894316  0.85772303  0.42795915     0.77200
O10         O  0.32646163  0.80851136  0.46796575    -0.58900
O11         O  0.35055846  0.82742228  0.35708980    -0.57400
O12         O  0.34506322  0.91042429  0.47910024    -0.57300
O13         O  0.40384708  0.89001994  0.41486625    -0.56500
O14         O  0.13856722  0.65876052  0.64838214    -0.57700
C15         C  0.13154952  0.60374404  0.54490877     0.74900
O16         O  0.08187684  0.73659815  0.56962356    -0.58900
C17         C  0.13443174  0.69364571  0.66623122     0.74900
C18         C  0.18533232  0.72828759  0.54078553     0.77300
Cd19       Cd  0.12983695  0.68651412  0.58119114     1.37500
O20         O  0.14296606  0.60964319  0.57939380    -0.57700
O21         O  0.19011227  0.70106215  0.56761768    -0.56500
C22         C  0.05999007  0.70729713  0.56829910     0.77200
O23         O  0.15498315  0.73757494  0.53377689    -0.58900
O24         O  0.12042100  0.63630331  0.52738438    -0.57400
O25         O  0.12924091  0.72572637  0.64462346    -0.57300
O26         O  0.07042892  0.66991504  0.57376081    -0.56500
O27         O  0.14647314  0.38899096  0.35920976    -0.57700
C28         C  0.13145630  0.44198310  0.46339620     0.74900
O29         O  0.07843102  0.31690514  0.43824000    -0.58900
C30         C  0.14050233  0.35549449  0.33978096     0.74900
C31         C  0.18218992  0.31722247  0.46407460     0.77300
Cd32       Cd  0.12912136  0.36157357  0.42364235     1.37500
O33         O  0.14209656  0.43753066  0.42838958    -0.57700
O34         O  0.18814705  0.34385242  0.43700599    -0.56500
C35         C  0.05776122  0.34474509  0.42638240     0.77200
O36         O  0.15150783  0.30895582  0.47075246    -0.58900
O37         O  0.12078320  0.40878851  0.48038454    -0.57400
O38         O  0.13024469  0.32390711  0.35963330    -0.57300
O39         O  0.07029672  0.37899935  0.41350921    -0.56500
O40         O  0.31948244  0.10831702  0.57976648    -0.57700
C41         C  0.32826209  0.18437049  0.67232153     0.74900
O42         O  0.39177231  0.22608816  0.57960075    -0.58900
C43         C  0.33335230  0.10277162  0.54648577     0.74900
C44         C  0.28966843  0.23228697  0.54761204     0.77300
Cd45       Cd  0.33964417  0.18198972  0.58809770     1.37500
O46         O  0.32477050  0.15071263  0.65234815    -0.57700
O47         O  0.28204607  0.20477165  0.57329470    -0.56500
C48         C  0.41153080  0.19476920  0.58322136     0.77200
O49         O  0.32077603  0.23822267  0.54172184    -0.58900
O50         O  0.33706599  0.21704271  0.65312686    -0.57400
O51         O  0.34874821  0.13452933  0.53229481    -0.57300
O52         O  0.39792777  0.15907787  0.58944316    -0.56500
O53         O  0.13923035  0.43788729  0.07836787    -0.57700
C54         C  0.13529210  0.35907281  0.16878460     0.74900
O55         O  0.07336404  0.32020154  0.06904465    -0.58900
C56         C  0.13029413  0.44170266  0.04269026     0.74900
C57         C  0.17791556  0.31162332  0.04833707     0.77300
Cd58       Cd  0.12552475  0.36214253  0.08422585     1.37500
O59         O  0.14360935  0.39072826  0.14801562    -0.57700
O60         O  0.18379161  0.34528434  0.06736508    -0.56500
C61         C  0.05385036  0.35104563  0.07633348     0.77200
O62         O  0.14727277  0.30084850  0.04571294    -0.58900
O63         O  0.12347221  0.32758848  0.15011535    -0.57400
O64         O  0.12070249  0.40801211  0.02562645    -0.57300
O65         O  0.06758416  0.38496902  0.08802193    -0.56500
O66         O  0.31993872  0.14881693  0.86383828    -0.57700
C67         C  0.33885542  0.09640515  0.96448345     0.74900
O68         O  0.38756137  0.21504650  0.95610853    -0.58900
C69         C  0.32629793  0.18135889  0.84328068     0.74900
C70         C  0.28397013  0.22412532  0.96398638     0.77300
Cd71       Cd  0.33820442  0.17815811  0.92680002     1.37500
O72         O  0.32903350  0.10125742  0.92931138    -0.57700
O73         O  0.28000608  0.18764608  0.94926737    -0.56500
C74         C  0.40853427  0.20008419  0.93159674     0.77200
O75         O  0.31317667  0.23996420  0.96113907    -0.58900
O76         O  0.34926247  0.12945093  0.98186672    -0.57400
O77         O  0.33579747  0.21404657  0.86206907    -0.57300
O78         O  0.39664521  0.17649716  0.90480405    -0.56500
O79         O  0.34556070  0.93057812  0.08109256    -0.57700
C80         C  0.33555986  0.85509489  0.16609364     0.74900
O81         O  0.31830279  0.79982191  0.03559517    -0.58900
C82         C  0.34087712  0.93423856  0.04423128     0.74900
C83         C  0.41165239  0.83041066  0.06978062     0.77300
Cd84       Cd  0.34223377  0.85285822  0.08127119     1.37500
O85         O  0.32538405  0.88530437  0.14458484    -0.57700
O86         O  0.39900759  0.86377345  0.05552309    -0.56500
C87         C  0.28788584  0.80736958  0.04405854     0.77200
O88         O  0.39164924  0.80537087  0.08733756    -0.58900
O89         O  0.34743731  0.82329296  0.14800763    -0.57400
O90         O  0.33558894  0.90034174  0.02516546    -0.57300
O91         O  0.28285148  0.83341254  0.07183952    -0.56500
O92         O  0.13701718  0.65698881  0.85463870    -0.57700
C93         C  0.12980354  0.60215585  0.95842251     0.74900
O94         O  0.14545644  0.73321589  0.97143287    -0.58900
C95         C  0.13481811  0.69227064  0.83698119     0.74900
C96         C  0.05248718  0.69671300  0.92774350     0.77300
Cd97       Cd  0.12389743  0.68349251  0.92069759     1.37500
O98         O  0.13820218  0.60723033  0.92261037    -0.57700
O99         O  0.06567026  0.66110911  0.92053665    -0.56500
C100        C  0.17613709  0.72825378  0.96249470     0.77200
O101        O  0.07246562  0.72792450  0.93131086    -0.58900
O102        O  0.12010730  0.63510071  0.97651221    -0.57400
O103        O  0.12774939  0.72413544  0.85825203    -0.57300
O104        O  0.18208396  0.70442904  0.93325583    -0.56500
O105        O  0.65815705  0.89166431  0.35560673    -0.57700
C106        C  0.64199653  0.94855594  0.46135682     0.74900
O107        O  0.58464045  0.82895525  0.44041890    -0.58900
C108        C  0.64714970  0.86003931  0.33646958     0.74900
C109        C  0.68959845  0.82106790  0.45830428     0.77300
Cd110      Cd  0.63693942  0.86876681  0.42050284     1.37500
O111        O  0.64391204  0.94649908  0.42405635    -0.57700
O112        O  0.69551839  0.85233108  0.43590407    -0.56500
C113        C  0.56494114  0.85751392  0.42775326     0.77200
O114        O  0.65907551  0.80965662  0.46123038    -0.58900
O115        O  0.63911002  0.91372739  0.47966867    -0.57400
O116        O  0.63252146  0.83156494  0.35657811    -0.57300
O117        O  0.57877390  0.88982084  0.41259194    -0.56500
O118        O  0.84768566  0.65396298  0.64827145    -0.57700
C119        C  0.84376516  0.60035328  0.55283019     0.74900
O120        O  0.82633313  0.74330072  0.53810688    -0.58900
C121        C  0.84104707  0.68755388  0.66721242     0.74900
C122        C  0.91612304  0.71395998  0.56699936     0.77300
Cd123      Cd  0.84799536  0.68641709  0.58234019     1.37500
O124        O  0.81779975  0.62251093  0.55889757    -0.57700
O125        O  0.90182412  0.72065759  0.59984132    -0.56500
C126        C  0.79567996  0.73289753  0.54192356     0.77200
O127        O  0.89792854  0.69789888  0.54014518    -0.58900
O128        O  0.87157144  0.61794064  0.56053764    -0.57400
O129        O  0.83638108  0.72053240  0.64662071    -0.57300
O130        O  0.78955004  0.70301214  0.56573461    -0.56500
O131        O  0.82734302  0.43233459  0.44263675    -0.57700
C132        C  0.83086892  0.35629296  0.35048818     0.74900
O133        O  0.89350467  0.31332443  0.44388783    -0.58900
C134        C  0.83866536  0.43589295  0.47736901     0.74900
C135        C  0.78833011  0.31104990  0.47210199     0.77300
Cd136      Cd  0.84179827  0.35755718  0.43408462     1.37500
O137        O  0.82584736  0.38897766  0.37131326    -0.57700
O138        O  0.78317484  0.34170328  0.44887709    -0.56500
C139        C  0.91298664  0.34190010  0.43044806     0.77200
O140        O  0.81871480  0.29968835  0.47622862    -0.58900
O141        O  0.83836436  0.32265554  0.36896670    -0.57400
O142        O  0.85171676  0.40292380  0.49229010    -0.57300
O143        O  0.89952703  0.37674375  0.42106346    -0.56500
O144        O  0.64595516  0.15578752  0.66191262    -0.57700
C145        C  0.63685653  0.10367754  0.55178459     0.74900
O146        O  0.57629021  0.22331175  0.58201909    -0.58900
C147        C  0.63553460  0.18810690  0.68049746     0.74900
C148        C  0.68067927  0.22657139  0.55708699     0.77300
Cd149      Cd  0.62754907  0.18032207  0.59572439     1.37500
O150        O  0.64006914  0.10407210  0.58907269    -0.57700
O151        O  0.68623519  0.19581059  0.58006232    -0.56500
C152        C  0.55645199  0.19174090  0.58324736     0.77200
O153        O  0.65039511  0.23879309  0.55466835    -0.58900
O154        O  0.62858119  0.13837116  0.53569316    -0.57400
O155        O  0.62147182  0.21617524  0.65965931    -0.57300
O156        O  0.56954807  0.15609573  0.59085008    -0.56500
O157        O  0.82533040  0.39254647  0.16093524    -0.57700
C158        C  0.83154971  0.44400221  0.05363226     0.74900
O159        O  0.88865330  0.32109328  0.07839361    -0.58900
C160        C  0.82940719  0.35810296  0.17955257     0.74900
C161        C  0.78381075  0.31765333  0.05948812     0.77300
Cd162      Cd  0.83789867  0.36463908  0.09524038     1.37500
O163        O  0.82345525  0.44045088  0.08967465    -0.57700
O164        O  0.77870028  0.34757337  0.08358269    -0.56500
C165        C  0.90920607  0.35082778  0.08599054     0.77200
O166        O  0.81429734  0.30842061  0.05270618    -0.58900
O167        O  0.84145479  0.41039164  0.03678168    -0.57400
O168        O  0.83711482  0.32604620  0.15891774    -0.57300
O169        O  0.89663513  0.38527075  0.09813569    -0.56500
O170        O  0.64285947  0.11720725  0.94771419    -0.57700
C171        C  0.63643300  0.19201988  0.85158318     0.74900
O172        O  0.57185548  0.22762604  0.95883421    -0.58900
C173        C  0.62524751  0.11159087  0.97845402     0.74900
C174        C  0.67577631  0.23925841  0.97184667     0.77300
Cd175      Cd  0.62348606  0.19008362  0.93527469     1.37500
O176        O  0.63395972  0.15765276  0.87075872    -0.57700
O177        O  0.68149506  0.20593758  0.95224968    -0.56500
C178        C  0.55277858  0.20904253  0.93429258     0.77200
O179        O  0.64535997  0.25104690  0.97402814    -0.58900
O180        O  0.63351017  0.22595764  0.87144126    -0.57400
O181        O  0.60766556  0.14270073  0.98968792    -0.57300
O182        O  0.56659914  0.18291084  0.91109977    -0.56500
O183        O  0.62590390  0.89243837  0.14847735    -0.57700
C184        C  0.62652076  0.94731468  0.05402152     0.74900
O185        O  0.64462136  0.80699718  0.03600805    -0.58900
C186        C  0.63723696  0.86020462  0.16614961     0.74900
C187        C  0.55549813  0.83152164  0.06696931     0.77300
Cd188      Cd  0.62296938  0.86119248  0.08233735     1.37500
O189        O  0.60587830  0.93659458  0.08077892    -0.57700
O190        O  0.56964248  0.85960724  0.04606738    -0.56500
C191        C  0.67521817  0.81771825  0.03960202     0.77200
O192        O  0.57346142  0.81492547  0.09362786    -0.58900
O193        O  0.64511457  0.91817722  0.04058003    -0.57400
O194        O  0.64156885  0.82751235  0.14503791    -0.57300
O195        O  0.68134989  0.84730802  0.06377877    -0.56500
O196        O  0.82181406  0.60512799  0.92937776    -0.57700
C197        C  0.83333922  0.68284438  0.83854928     0.74900
O198        O  0.81324109  0.73770568  0.96599468    -0.58900
C199        C  0.83033943  0.60170903  0.96526671     0.74900
C200        C  0.90783692  0.69350723  0.93439703     0.77300
Cd201      Cd  0.83663025  0.68058929  0.92368768     1.37500
O202        O  0.82305056  0.65129726  0.85828672    -0.57700
O203        O  0.89462476  0.65749912  0.92875630    -0.56500
C204        C  0.78272851  0.72828031  0.95969250     0.77200
O205        O  0.88796527  0.72496997  0.93503236    -0.58900
O206        O  0.84328701  0.71441391  0.85853761    -0.57400
O207        O  0.84040643  0.63535316  0.98199818    -0.57300
O208        O  0.77746721  0.69887766  0.93510395    -0.56500
C209        C  0.75479030  0.75052012  0.97991599    -0.06000
C210        C  0.75905262  0.79339545  0.98995966    -0.17200
C211        C  0.73315297  0.81655403  0.00780445     0.11200
C212        C  0.70240715  0.79618002  0.01739502    -0.06000
C213        C  0.69802486  0.75340699  0.00703103    -0.17200
C214        C  0.72382096  0.73031379  0.98890092     0.11200
S215        S  0.74035226  0.87249290  0.01525358    -0.32200
S216        S  0.71610854  0.67463892  0.98031538    -0.32200
H217        H  0.74807223  0.66153801  0.99325180     0.29200
H218        H  0.70793975  0.88444258  0.00290987     0.29200
H219        H  0.78241810  0.80944267  0.98269466     0.19800
H220        H  0.67471895  0.73729314  0.01443393     0.19800
C221        C  0.62539470  0.07077145  0.99989288    -0.06000
C222        C  0.65517310  0.04697992  0.00020558    -0.17200
C223        C  0.65690949  0.00786579  0.01959231     0.11200
C224        C  0.62786513  0.99110067  0.03821496    -0.06000
C225        C  0.59840067  0.01560776  0.03908844    -0.17200
C226        C  0.59672096  0.05488546  0.01988947     0.11200
S227        S  0.69727255  0.98192587  0.02057303    -0.32200
S228        S  0.55657236  0.08144514  0.01963993    -0.32200
H229        H  0.55785799  0.09181766  0.97920106     0.29200
H230        H  0.69397368  0.96740212  0.05973345     0.29200
H231        H  0.67753252  0.05930409  0.98575997     0.19800
H232        H  0.57591105  0.00315665  0.05313782     0.19800
C233        C  0.82911367  0.56085494  0.98694709    -0.06000
C234        C  0.82844385  0.56203913  0.02843383    -0.17200
C235        C  0.82955862  0.52487221  0.05098922     0.11200
C236        C  0.82984859  0.48488053  0.03188674    -0.06000
C237        C  0.82971062  0.48371080  0.99035840    -0.17200
C238        C  0.83011544  0.52093497  0.96781443     0.11200
S239        S  0.83286174  0.53125769  0.10373900    -0.32200
S240        S  0.83430393  0.51491805  0.91507023    -0.32200
H241        H  0.86102355  0.54417465  0.91202877     0.29200
H242        H  0.86048226  0.50359611  0.10709993     0.29200
H243        H  0.82809583  0.59232701  0.04361383     0.19800
H244        H  0.83032966  0.45345729  0.97514485     0.19800
C245        C  0.75582629  0.29620157  0.03864623    -0.06000
C246        C  0.76228912  0.27921661  0.00105769    -0.17200
C247        C  0.73644740  0.26254068  0.97781013     0.11200
C248        C  0.70315610  0.26175621  0.99258053    -0.06000
C249        C  0.69655915  0.27886431  0.03006171    -0.17200
C250        C  0.72247326  0.29532083  0.05347805     0.11200
S251        S  0.74747380  0.24467676  0.92884662    -0.32200
S252        S  0.71147412  0.31212248  0.10275701    -0.32200
H253        H  0.74044310  0.29492348  0.12040099     0.29200
H254        H  0.71772991  0.25938166  0.91104320     0.29200
H255        H  0.78755686  0.28029197  0.98896323     0.19800
H256        H  0.67125443  0.27754066  0.04204358     0.19800
C257        C  0.63902500  0.19202417  0.72419151    -0.06000
C258        C  0.65222953  0.15744950  0.74538939    -0.17200
C259        C  0.65403397  0.15779720  0.78670166     0.11200
C260        C  0.64073111  0.19256489  0.80803429    -0.06000
C261        C  0.62894980  0.22788054  0.78696761    -0.17200
C262        C  0.62868316  0.22848023  0.74562594     0.11200
S263        S  0.67471879  0.11358912  0.81013296    -0.32200
S264        S  0.61505489  0.27705563  0.72261774    -0.32200
H265        H  0.64319742  0.27932428  0.69735559     0.29200
H266        H  0.69080148  0.13862029  0.83895145     0.29200
H267        H  0.66143112  0.12979196  0.72972081     0.19800
H268        H  0.61939338  0.25523232  0.80282074     0.19800
C269        C  0.82890060  0.35748256  0.30684783    -0.06000
C270        C  0.82218514  0.31969244  0.28624131    -0.17200
C271        C  0.82087464  0.31886647  0.24487446     0.11200
C272        C  0.82684725  0.35662646  0.22323194    -0.06000
C273        C  0.83284559  0.39448025  0.24396654    -0.17200
C274        C  0.83458095  0.39523498  0.28512855     0.11200
S275        S  0.81064428  0.26889015  0.22189821    -0.32200
S276        S  0.84693563  0.44483269  0.30749062    -0.32200
H277        H  0.87179342  0.42624931  0.33145867     0.29200
H278        H  0.78904438  0.28688686  0.19360806     0.29200
H279        H  0.81761800  0.29058563  0.30246275     0.19800
H280        H  0.83797498  0.42355351  0.22793369     0.19800
C281        C  0.70806273  0.24700967  0.53418163    -0.06000
C282        C  0.70452557  0.28971715  0.52334389    -0.17200
C283        C  0.73022565  0.31140512  0.50349264     0.11200
C284        C  0.76033654  0.28988854  0.49341067    -0.06000
C285        C  0.76362459  0.24691848  0.50359861    -0.17200
C286        C  0.73771455  0.22509313  0.52303863     0.11200
S287        S  0.72345886  0.36706085  0.49398002    -0.32200
S288        S  0.74342014  0.16884314  0.53046891    -0.32200
H289        H  0.71039257  0.15798419  0.51934644     0.29200
H290        H  0.75548129  0.37950749  0.50741547     0.29200
H291        H  0.68192417  0.30683682  0.53148634     0.19800
H292        H  0.78618433  0.22979134  0.49530753     0.19800
C293        C  0.83877897  0.68754854  0.71097997    -0.06000
C294        C  0.83254300  0.64878200  0.73018168    -0.17200
C295        C  0.83089830  0.64596045  0.77137898     0.11200
C296        C  0.83431504  0.68316839  0.79461598    -0.06000
C297        C  0.84024454  0.72203500  0.77531226    -0.17200
C298        C  0.84323745  0.72452039  0.73416740     0.11200
S299        S  0.82594454  0.59350688  0.79190172    -0.32200
S300        S  0.85482729  0.77534344  0.71369728    -0.32200
H301        H  0.88001320  0.75856880  0.68893927     0.29200
H302        H  0.85414504  0.59736303  0.81674669     0.29200
H303        H  0.82949597  0.62002426  0.71295207     0.19800
H304        H  0.84353851  0.75079676  0.79246090     0.19800
C305        C  0.84157633  0.55683963  0.53648890    -0.06000
C306        C  0.81485053  0.54713989  0.51094210    -0.17200
C307        C  0.81249721  0.50753693  0.49242174     0.11200
C308        C  0.83774491  0.47673178  0.49891982    -0.06000
C309        C  0.86386737  0.48592924  0.52543017    -0.17200
C310        C  0.86593412  0.52529730  0.54442614     0.11200
S311        S  0.77626888  0.49819066  0.46162577    -0.32200
S312        S  0.89988597  0.53274237  0.57896746    -0.32200
H313        H  0.88011503  0.55431288  0.60703692     0.29200
H314        H  0.77147059  0.45606195  0.47436299     0.29200
H315        H  0.79576418  0.57079774  0.50493389     0.19800
H316        H  0.88317925  0.46245673  0.53103568     0.19800
C317        C  0.64946315  0.85820308  0.29273958    -0.06000
C318        C  0.65139477  0.89678307  0.27205544    -0.17200
C319        C  0.64912038  0.89829658  0.23088270     0.11200
C320        C  0.64411782  0.86032712  0.20925284    -0.06000
C321        C  0.64407008  0.82147425  0.22973777    -0.17200
C322        C  0.64701596  0.81994719  0.27098239     0.11200
S323        S  0.65291025  0.94987892  0.20814569    -0.32200
S324        S  0.64772340  0.76821799  0.29377164    -0.32200
H325        H  0.67206119  0.77920378  0.32214823     0.29200
H326        H  0.67393351  0.93567496  0.17736957     0.29200
H327        H  0.65383459  0.92637829  0.28814092     0.19800
H328        H  0.64103943  0.79198819  0.21362648     0.19800
C329        C  0.64235346  0.98934732  0.48271694    -0.06000
C330        C  0.66080479  0.99244326  0.51792086    -0.17200
C331        C  0.66101125  0.02994793  0.54014221     0.11200
C332        C  0.64123357  0.06478879  0.52781938    -0.06000
C333        C  0.62372677  0.06202288  0.49189192    -0.17200
C334        C  0.62384695  0.02479979  0.46948244     0.11200
S335        S  0.68807383  0.03175509  0.58277004    -0.32200
S336        S  0.59782372  0.02372383  0.42592332    -0.32200
H337        H  0.58498349  0.98271957  0.43288080     0.29200
H338        H  0.69904545  0.07364912  0.57584842     0.29200
H339        H  0.67561563  0.96564988  0.52784120     0.19800
H340        H  0.60851457  0.08844219  0.48194327     0.19800
C341        C  0.71686751  0.79922653  0.48007950    -0.06000
C342        C  0.71314949  0.75596247  0.48898674    -0.17200
C343        C  0.73853420  0.73340003  0.50839566     0.11200
C344        C  0.76846856  0.75452946  0.51990126    -0.06000
C345        C  0.77215902  0.79779486  0.51104756    -0.17200
C346        C  0.74659215  0.82046969  0.49211000     0.11200
S347        S  0.73159498  0.67735805  0.51586571    -0.32200
S348        S  0.75266946  0.87694600  0.48678264    -0.32200
H349        H  0.71964444  0.88744105  0.49823958     0.29200
H350        H  0.76447989  0.66553892  0.50507513     0.29200
H351        H  0.69059155  0.73925201  0.47990399     0.19800
H352        H  0.79464959  0.81453796  0.52030900     0.19800
C353        C  0.01564722  0.70009363  0.93263515    -0.06000
C354        C  0.99924402  0.66668021  0.95225174    -0.17200
C355        C  0.96429144  0.66552215  0.95589849     0.11200
C356        C  0.94472030  0.69797131  0.93857901    -0.06000
C357        C  0.96111374  0.73269705  0.92080933    -0.17200
C358        C  0.99632307  0.73390491  0.91730638     0.11200
S359        S  0.94635659  0.62191776  0.98349465    -0.32200
S360        S  0.01468869  0.77740605  0.89013957    -0.32200
H361        H  0.03818230  0.75227741  0.86965351     0.29200
H362        H  0.91961198  0.64565024  0.99942288     0.29200
H363        H  0.01385909  0.64107825  0.96496316     0.19800
H364        H  0.94637124  0.75768436  0.90731886     0.19800
C365        C  0.44814402  0.82266817  0.06700290    -0.06000
C366        C  0.46494093  0.83468834  0.03225155    -0.17200
C367        C  0.50005842  0.83393770  0.02976471     0.11200
C368        C  0.51914898  0.82169119  0.06313878    -0.06000
C369        C  0.50215644  0.80647627  0.09678499    -0.17200
C370        C  0.46705022  0.80769463  0.09939938     0.11200
S371        S  0.51870505  0.84980130  0.98342994    -0.32200
S372        S  0.44839758  0.79494843  0.14656447    -0.32200
H373        H  0.42756979  0.83102768  0.14760031     0.29200
H374        H  0.54551188  0.82079901  0.98576536     0.29200
H375        H  0.45058984  0.84566638  0.00706882     0.19800
H376        H  0.51629336  0.79718395  0.12270092     0.19800
C377        C  0.20399095  0.74896470  0.98433750    -0.06000
C378        C  0.23455294  0.75543267  0.96427150    -0.17200
C379        C  0.26191415  0.77518476  0.98253071     0.11200
C380        C  0.25953020  0.78743560  0.02263305    -0.06000
C381        C  0.22891492  0.78140205  0.04267192    -0.17200
C382        C  0.20130240  0.76223573  0.02419786     0.11200
S383        S  0.29807916  0.78647267  0.95201772    -0.32200
S384        S  0.16406535  0.75435977  0.05377245    -0.32200
H385        H  0.15976601  0.71178986  0.04216446     0.29200
H386        H  0.30239555  0.82800819  0.96654149     0.29200
H387        H  0.23688468  0.74625096  0.93351496     0.19800
H388        H  0.22664254  0.79091342  0.07334480     0.19800
C389        C  0.44511270  0.20887765  0.93346533    -0.06000
C390        C  0.46318598  0.20915416  0.89778261    -0.17200
C391        C  0.49815550  0.21324000  0.89719053     0.11200
C392        C  0.51602067  0.21565676  0.93313509    -0.06000
C393        C  0.49798552  0.21831491  0.96876288    -0.17200
C394        C  0.46278281  0.21474607  0.96935711     0.11200
S395        S  0.51852497  0.21554102  0.84951565    -0.32200
S396        S  0.44240715  0.21434318  0.01696071    -0.32200
H397        H  0.42300773  0.17791893  0.00897077     0.29200
H398        H  0.54488111  0.24238460  0.86174240     0.29200
H399        H  0.44994788  0.20599595  0.86996512     0.19800
H400        H  0.51147490  0.22023196  0.99650293     0.19800
C401        C  0.33865518  0.05456919  0.98440094    -0.06000
C402        C  0.36008607  0.04870127  0.01691082    -0.17200
C403        C  0.36187774  0.00973284  0.03653595     0.11200
C404        C  0.34126344  0.97572383  0.02408136    -0.06000
C405        C  0.32012543  0.98131665  0.99137426    -0.17200
C406        C  0.31821119  0.02028722  0.97180334     0.11200
S407        S  0.39228693  0.00499836  0.07573630    -0.32200
S408        S  0.28787446  0.02433043  0.93248836    -0.32200
H409        H  0.27446038  0.06295000  0.94621304     0.29200
H410        H  0.40315589  0.96423023  0.06451841     0.29200
H411        H  0.37627058  0.07435903  0.02659156     0.19800
H412        H  0.30410744  0.95547717  0.98170628     0.19800
C413        C  0.01684922  0.34827868  0.07245143    -0.06000
C414        C  0.99999262  0.31104937  0.08417184    -0.17200
C415        C  0.96480885  0.31030374  0.08849086     0.11200
C416        C  0.94599033  0.34728758  0.08002859    -0.06000
C417        C  0.96285903  0.38349398  0.06609021    -0.17200
C418        C  0.99772971  0.38421143  0.06161805     0.11200
S419        S  0.94596423  0.26266523  0.10811882    -0.32200
S420        S  0.01616327  0.43196180  0.04137291    -0.32200
H421        H  0.04205859  0.41096904  0.02081162     0.29200
H422        H  0.92352428  0.28399874  0.13341538     0.29200
H423        H  0.01440435  0.28331025  0.09251851     0.19800
H424        H  0.94867348  0.41166428  0.05842213     0.19800
C425        C  0.13079016  0.48309697  0.02178499    -0.06000
C426        C  0.13243296  0.48314883  0.98029935    -0.17200
C427        C  0.13210070  0.52104775  0.95865483     0.11200
C428        C  0.13088577  0.56043207  0.97879952    -0.06000
C429        C  0.12955824  0.56027808  0.02030099    -0.17200
C430        C  0.12897351  0.52245084  0.04185085     0.11200
S431        S  0.13194969  0.51642835  0.90559846    -0.32200
S432        S  0.12416141  0.52710182  0.09465373    -0.32200
H433        H  0.09835064  0.49651833  0.09693429     0.29200
H434        H  0.10406138  0.54340277  0.90085543     0.29200
H435        H  0.13353097  0.45330691  0.96442597     0.19800
H436        H  0.12828630  0.59001144  0.03633549     0.19800
C437        C  0.20521984  0.28720284  0.02891601    -0.06000
C438        C  0.19711141  0.26134635  0.99648233    -0.17200
C439        C  0.22212913  0.24110917  0.97427648     0.11200
C440        C  0.25634690  0.24642924  0.98465073    -0.06000
C441        C  0.26443967  0.27172387  0.01738819    -0.17200
C442        C  0.23941154  0.29119067  0.04009882     0.11200
S443        S  0.20867358  0.21068441  0.93203234    -0.32200
S444        S  0.25286180  0.31837222  0.08421516    -0.32200
H445        H  0.22635774  0.30256409  0.10768781     0.29200
H446        H  0.23481482  0.22498937  0.90723746     0.29200
H447        H  0.17110071  0.25794664  0.98743266     0.19800
H448        H  0.29048347  0.27499739  0.02638186     0.19800
C449        C  0.44859101  0.19818806  0.57966308    -0.06000
C450        C  0.46558267  0.16408571  0.56194886    -0.17200
C451        C  0.50065129  0.16282889  0.56004885     0.11200
C452        C  0.51971943  0.19585976  0.57729895    -0.06000
C453        C  0.50286491  0.23138404  0.59275631    -0.17200
C454        C  0.46756048  0.23277324  0.59440152     0.11200
S455        S  0.51942277  0.11839275  0.53461962    -0.32200
S456        S  0.44856146  0.27780138  0.61842611    -0.32200
H457        H  0.42501373  0.25363291  0.63994939     0.29200
H458        H  0.54683440  0.14159550  0.51937328     0.29200
H459        H  0.45135991  0.13799027  0.54940024     0.19800
H460        H  0.51722947  0.25701230  0.60586705     0.19800
C461        C  0.32367461  0.18450719  0.71588430    -0.06000
C462        C  0.32493367  0.14541540  0.73582344    -0.17200
C463        C  0.32548310  0.14326336  0.77705627     0.11200
C464        C  0.32376979  0.18111416  0.79958645    -0.06000
C465        C  0.32100442  0.22008533  0.77969002    -0.17200
C466        C  0.32051959  0.22219675  0.73838112     0.11200
S467        S  0.33118185  0.09135081  0.79848515    -0.32200
S468        S  0.31513484  0.27392810  0.71658572    -0.32200
H469        H  0.29177266  0.25982605  0.68825211     0.29200
H470        H  0.35885991  0.10394552  0.82160983     0.29200
H471        H  0.32732396  0.11617406  0.71920052     0.19800
H472        H  0.31910065  0.24929840  0.79644794     0.19800
C473        C  0.94969333  0.33606677  0.42606381    -0.06000
C474        C  0.96781756  0.31522277  0.45585785    -0.17200
C475        C  0.00314631  0.31658264  0.45662853     0.11200
C476        C  0.02081379  0.33849340  0.42647167    -0.06000
C477        C  0.00254008  0.35700944  0.39553624    -0.17200
C478        C  0.96747264  0.35545043  0.39462627     0.11200
S479        S  0.02382454  0.29303225  0.49852606    -0.32200
S480        S  0.94697545  0.37838371  0.35212099    -0.32200
H481        H  0.91994491  0.34943795  0.35168196     0.29200
H482        H  0.04636301  0.32700124  0.50412795     0.29200
H483        H  0.95440279  0.30021305  0.48004884     0.19800
H484        H  0.01574312  0.37291378  0.37166261     0.19800
C485        C  0.14345957  0.35484032  0.29601702    -0.06000
C486        C  0.14369633  0.39402574  0.27616920    -0.17200
C487        C  0.14116567  0.39648182  0.23507203     0.11200
C488        C  0.13894899  0.35875422  0.21244533    -0.06000
C489        C  0.14014493  0.31946581  0.23214525    -0.17200
C490        C  0.14295413  0.31707534  0.27336495     0.11200
S491        S  0.13867231  0.44901792  0.21411430    -0.32200
S492        S  0.14683231  0.26493746  0.29480109    -0.32200
H493        H  0.17168598  0.27719498  0.32210996     0.29200
H494        H  0.10959635  0.43993856  0.19197883     0.29200
H495        H  0.14415642  0.42334296  0.29287660     0.19800
H496        H  0.13934072  0.29026113  0.21528517     0.19800
C497        C  0.26323385  0.25568638  0.52591401    -0.06000
C498        C  0.23272760  0.26393633  0.54544234    -0.17200
C499        C  0.20632677  0.28495779  0.52650284     0.11200
C500        C  0.20983385  0.29712209  0.48648835    -0.06000
C501        C  0.24062226  0.28986906  0.46721700    -0.18800
C502        C  0.26709145  0.26891896  0.48619996     0.11200
S503        S  0.16959982  0.29711173  0.55571425    -0.32200
S504        S  0.30406438  0.25759597  0.45717325    -0.32200
H505        H  0.30701559  0.21545712  0.47056830     0.29200
H506        H  0.16558594  0.33823103  0.54011502     0.29200
H507        H  0.22960772  0.25460994  0.57607334     0.19800
H508        H  0.24368943  0.29916270  0.43657070     0.19800
C509        C  0.02390044  0.71542800  0.56136090    -0.06000
C510        C  0.00737914  0.74650152  0.58383838    -0.17200
C511        C  0.97211518  0.74917564  0.58424274     0.11200
C512        C  0.95284542  0.72032297  0.56141794    -0.06000
C513        C  0.96971311  0.69177214  0.53645621    -0.17200
C514        C  0.00478906  0.68893163  0.53626291     0.11200
S515        S  0.95336743  0.78907846  0.61540975    -0.32200
S516        S  0.02359016  0.64960041  0.50438131    -0.32200
H517        H  0.05324380  0.67277559  0.49698403     0.29200
H518        H  0.92574683  0.79650475  0.59043739     0.29200
H519        H  0.02188732  0.76726589  0.60286058     0.19800
H520        H  0.95545791  0.66961102  0.51856598     0.19800
C521        C  0.13584707  0.69618416  0.70994484    -0.06000
C522        C  0.15578466  0.66651282  0.73010969    -0.17200
C523        C  0.15775213  0.66627610  0.77135895     0.11200
C524        C  0.13857616  0.69561362  0.79354886    -0.06000
C525        C  0.11971519  0.72642609  0.77343988    -0.17200
C526        C  0.11776906  0.72672434  0.73211846     0.11200
S527        S  0.18597154  0.62848347  0.79363498    -0.32200
S528        S  0.08965645  0.76471157  0.71002060    -0.32200
H529        H  0.07479186  0.73513569  0.68419277     0.29200
H530        H  0.19659932  0.65602703  0.82390603     0.29200
H531        H  0.17034442  0.64350797  0.71356940     0.19800
H532        H  0.10475365  0.74896949  0.79005603     0.19800
C533        C  0.13136531  0.56160726  0.52525252    -0.06000
C534        C  0.12886925  0.56063265  0.48383601    -0.17200
C535        C  0.12822201  0.52235522  0.46300662     0.11200
C536        C  0.13135134  0.48356471  0.48366642    -0.06000
C537        C  0.13374449  0.48435074  0.52505708    -0.17200
C538        C  0.13315755  0.52263905  0.54605283     0.11200
S539        S  0.12144087  0.52546227  0.41042368    -0.32200
S540        S  0.13299771  0.51903143  0.59918044    -0.32200
H541        H  0.10669083  0.54843978  0.60395411     0.29200
H542        H  0.09750264  0.49246123  0.40973185     0.29200
H543        H  0.12687007  0.59001967  0.46737036     0.19800
H544        H  0.13557502  0.45481060  0.54132688     0.19800
C545        C  0.45623553  0.85715202  0.43193872    -0.06000
C546        C  0.47357806  0.81825635  0.43032470    -0.17200
C547        C  0.50896115  0.81681591  0.42940317     0.11200
C548        C  0.52768109  0.85509421  0.43068029    -0.06000
C549        C  0.51025645  0.89364045  0.43384694    -0.17200
C550        C  0.47519414  0.89513798  0.43514812     0.11200
S551        S  0.52840502  0.76552827  0.42405856    -0.32200
S552        S  0.45661593  0.94679825  0.44228424    -0.32200
H553        H  0.43227978  0.93247183  0.46950285     0.29200
H554        H  0.55161078  0.77894762  0.39515942     0.29200
H555        H  0.45952138  0.78885192  0.42802831     0.19800
H556        H  0.52416207  0.92321060  0.43586693     0.19800
C557        C  0.33381184  0.85615064  0.20995469    -0.06000
C558        C  0.33713493  0.81761304  0.23057220    -0.17200
C559        C  0.33597094  0.81596329  0.27186660     0.11200
C560        C  0.33215135  0.85389513  0.29376325    -0.06000
C561        C  0.32782057  0.89226645  0.27318516    -0.17200
C562        C  0.32913218  0.89398450  0.23189675     0.11200
S563        S  0.33848521  0.76421252  0.29439532    -0.32200
S564        S  0.32695334  0.94593372  0.20971212    -0.32200
H565        H  0.35589451  0.93990599  0.18634297     0.29200
H566        H  0.31338769  0.77257148  0.32273226     0.29200
H567        H  0.34026248  0.78820852  0.21440127     0.19800
H568        H  0.32509736  0.92170197  0.28940172     0.19800
C569        C  0.33540054  0.98515543  0.48126310    -0.06000
C570        C  0.32311447  0.98544797  0.52015326    -0.17200
C571        C  0.32201174  0.02289814  0.54233277     0.11200
C572        C  0.33241151  0.06173052  0.52489852    -0.06000
C573        C  0.34391214  0.06133333  0.48555011    -0.17200
C574        C  0.34623797  0.02364710  0.46400117     0.11200
S575        S  0.30873999  0.01801040  0.59305286    -0.32200
S576        S  0.36572912  0.02661766  0.41591425    -0.32200
H577        H  0.38547689  0.99002488  0.42113194     0.29200
H578        H  0.33791015  0.03768535  0.60793153     0.29200
H579        H  0.31505040  0.95597120  0.53378812     0.19800
H580        H  0.35238347  0.09048320  0.47168782     0.19800
C581        C  0.21378726  0.74824916  0.51918543    -0.06000
C582        C  0.24417032  0.75530733  0.53930263    -0.17200
C583        C  0.27120044  0.77645304  0.52119988     0.11200
C584        C  0.26834868  0.79021763  0.48151640    -0.06000
C585        C  0.23815203  0.78240673  0.46125168    -0.17200
C586        C  0.21124014  0.76112884  0.47927117     0.11200
S587        S  0.30763605  0.78708635  0.55121890    -0.32200
S588        S  0.17514713  0.74948366  0.44895022    -0.32200
H589        H  0.17012014  0.70846779  0.46444702     0.29200
H590        H  0.31070506  0.82963600  0.53896084     0.29200
H591        H  0.24648272  0.74565482  0.56992756     0.19800
H592        H  0.23569150  0.79217083  0.43067310     0.19800
loop_ 
_geom_bond_atom_site_label_1 
_geom_bond_atom_site_label_2 
_geom_bond_distance 
_geom_bond_site_symmetry_2 
_ccdc_geom_bond_type 
O1            C4   1.266       .  A
O1           Cd6   2.462       .  S
C2           O11   1.266       .  A
C2            O7   1.265       .  A
C2          C560   1.485       .  S
O3            C9   1.269       .  A
O3           Cd6   2.516       .  S
C4           O12   1.264       .  A
C4          C569   1.475       .  S
C5           O10   1.267       .  A
C5            O8   1.264       .  A
C5          C584   1.485       .  S
Cd6          O13   2.430       .  S
Cd6          O12   2.443       .  S
Cd6          O11   2.464       .  S
Cd6           O7   2.453       .  S
Cd6          O10   2.489       .  S
Cd6           O8   2.453       .  S
C9           O13   1.263       .  A
C9          C545   1.489       .  S
O14          C17   1.265       .  A
O14         Cd19   2.461       .  S
C15          O24   1.266       .  A
C15          O20   1.267       .  A
C15         C533   1.485       .  S
O16          C22   1.268       .  A
O16         Cd19   2.508       .  S
C17          O25   1.265       .  A
C17         C521   1.483       .  S
C18          O23   1.265       .  A
C18          O21   1.264       .  A
C18         C581   1.484       .  S
Cd19         O26   2.431       .  S
Cd19         O25   2.477       .  S
Cd19         O24   2.441       .  S
Cd19         O20   2.478       .  S
Cd19         O23   2.478       .  S
Cd19         O21   2.480       .  S
C22          O26   1.263       .  A
C22         C509   1.477       .  S
O27          C30   1.265       .  A
O27         Cd32   2.442       .  S
C28          O37   1.265       .  A
C28          O33   1.265       .  A
C28         C536   1.478       .  S
O29          C35   1.269       .  A
O29         Cd32   2.503       .  S
C30          O38   1.266       .  A
C30         C485   1.486       .  S
C31          O36   1.266       .  A
C31          O34   1.263       .  A
C31         C500   1.480       .  S
Cd32         O39   2.428       .  S
Cd32         O38   2.470       .  S
Cd32         O37   2.451       .  S
Cd32         O33   2.451       .  S
Cd32         O36   2.468       .  S
Cd32         O34   2.456       .  S
C35          O39   1.264       .  A
C35         C476   1.481       .  S
O40          C43   1.265       .  A
O40         Cd45   2.469       .  S
C41          O50   1.265       .  A
C41          O46   1.265       .  A
C41         C461   1.485       .  S
O42          C48   1.268       .  A
O42         Cd45   2.508       .  S
C43          O51   1.265       .  A
C43         C572   1.485       .  S
C44          O49   1.265       .  A
C44          O47   1.263       .  A
C44         C497   1.481       .  S
Cd45         O52   2.429       .  S
Cd45         O51   2.436       .  S
Cd45         O50   2.464       .  S
Cd45         O46   2.457       .  S
Cd45         O49   2.484       .  S
Cd45         O47   2.453       .  S
C48          O52   1.264       .  A
C48         C449   1.481       .  S
O53          C56   1.265       .  A
O53         Cd58   2.453       .  S
C54          O63   1.266       .  A
C54          O59   1.263       .  A
C54         C488   1.485       .  S
O55          C61   1.268       .  A
O55         Cd58   2.510       .  S
C56          O64   1.267       .  A
C56         C425   1.483       .  S
C57          O62   1.267       .  A
C57          O60   1.262       .  A
C57         C437   1.484       .  S
Cd58         O65   2.417       .  S
Cd58         O64   2.461       .  S
Cd58         O63   2.482       .  S
Cd58         O59   2.448       .  S
Cd58         O62   2.485       .  S
Cd58         O60   2.444       .  S
C61          O65   1.263       .  A
C61         C413   1.479       .  S
O66          C69   1.263       .  A
O66         Cd71   2.434       .  S
C67          O76   1.265       .  A
C67          O72   1.263       .  A
C67         C401   1.480       .  S
O68          C74   1.266       .  A
O68         Cd71   2.486       .  S
C69          O77   1.267       .  A
C69         C464   1.482       .  S
C70          O75   1.266       .  A
C70          O73   1.262       .  A
C70         C440   1.479       .  S
Cd71         O78   2.438       .  S
Cd71         O77   2.467       .  S
Cd71         O76   2.454       .  S
Cd71         O72   2.450       .  S
Cd71         O75   2.477       .  S
Cd71         O73   2.452       .  S
C74          O78   1.264       .  A
C74         C389   1.481       .  S
O79          C82   1.267       .  A
O79         Cd84   2.451       .  S
C80          O89   1.266       .  A
C80          O85   1.265       .  A
C80         C557   1.486       .  S
O81          C87   1.265       .  A
O81         Cd84   2.467       .  S
C82          O90   1.265       .  A
C82         C404   1.474       .  S
C83          O88   1.266       .  A
C83          O86   1.262       .  A
C83         C365   1.474       .  S
Cd84         O91   2.459       .  S
Cd84         O90   2.432       .  S
Cd84         O89   2.452       .  S
Cd84         O85   2.466       .  S
Cd84         O88   2.480       .  S
Cd84         O86   2.441       .  S
C87          O91   1.264       .  A
C87         C380   1.480       .  S
O92          C95   1.265       .  A
O92         Cd97   2.442       .  S
C93         O102   1.265       .  A
C93          O98   1.266       .  A
C93         C428   1.484       .  S
O94         C100   1.266       .  A
O94         Cd97   2.477       .  S
C95         O103   1.267       .  A
C95         C524   1.481       .  S
C96         O101   1.268       .  A
C96          O99   1.262       .  A
C96         C353   1.477       .  S
Cd97        O104   2.442       .  S
Cd97        O103   2.474       .  S
Cd97        O102   2.431       .  S
Cd97         O98   2.470       .  S
Cd97        O101   2.505       .  S
Cd97         O99   2.418       .  S
C100        O104   1.264       .  A
C100        C377   1.483       .  S
O105        C108   1.266       .  A
O105       Cd110   2.458       .  S
C106        O115   1.264       .  A
C106        O111   1.266       .  A
C106        C329   1.474       .  S
O107        C113   1.269       .  A
O107       Cd110   2.516       .  S
C108        O116   1.265       .  A
C108        C317   1.484       .  S
C109        O114   1.268       .  A
C109        O112   1.264       .  A
C109        C341   1.482       .  S
Cd110       O117   2.422       .  S
Cd110       O116   2.467       .  S
Cd110       O115   2.454       .  S
Cd110       O111   2.466       .  S
Cd110       O114   2.480       .  S
Cd110       O112   2.444       .  S
C113        O117   1.264       .  A
C113        C548   1.486       .  S
O118        C121   1.265       .  A
O118       Cd123   2.454       .  S
C119        O128   1.263       .  A
C119        O124   1.264       .  A
C119        C305   1.480       .  S
O120        C126   1.267       .  A
O120       Cd123   2.490       .  S
C121        O129   1.265       .  A
C121        C293   1.484       .  S
C122        O127   1.267       .  A
C122        O125   1.265       .  A
C122        C512   1.485       .  S
Cd123       O130   2.449       .  S
Cd123       O129   2.470       .  S
Cd123       O128   2.466       .  S
Cd123       O124   2.473       .  S
Cd123       O127   2.468       .  S
Cd123       O125   2.467       .  S
C126        O130   1.262       .  A
C126        C344   1.482       .  S
O131        C134   1.264       .  A
O131       Cd136   2.442       .  S
C132        O141   1.266       .  A
C132        O137   1.264       .  A
C132        C269   1.480       .  S
O133        C139   1.269       .  A
O133       Cd136   2.508       .  S
C134        O142   1.267       .  A
C134        C308   1.479       .  S
C135        O140   1.268       .  A
C135        O138   1.262       .  A
C135        C284   1.481       .  S
Cd136       O143   2.411       .  S
Cd136       O142   2.466       .  S
Cd136       O141   2.467       .  S
Cd136       O137   2.429       .  S
Cd136       O140   2.486       .  S
Cd136       O138   2.433       .  S
C139        O143   1.263       .  A
C139        C473   1.478       .  S
O144        C147   1.267       .  A
O144       Cd149   2.482       .  S
C145        O154   1.265       .  A
C145        O150   1.269       .  A
C145        C332   1.479       .  S
O146        C152   1.268       .  A
O146       Cd149   2.493       .  S
C147        O155   1.263       .  A
C147        C257   1.491       .  S
C148        O153   1.267       .  A
C148        O151   1.262       .  A
C148        C281   1.481       .  S
Cd149       O156   2.433       .  S
Cd149       O155   2.453       .  S
Cd149       O154   2.424       .  S
Cd149       O150   2.464       .  S
Cd149       O153   2.476       .  S
Cd149       O151   2.439       .  S
C152        O156   1.265       .  A
C152        C452   1.480       .  S
O157        C160   1.265       .  A
O157       Cd162   2.442       .  S
C158        O167   1.266       .  A
C158        O163   1.266       .  A
C158        C236   1.484       .  S
O159        C165   1.268       .  A
O159       Cd162   2.507       .  S
C160        O168   1.265       .  A
C160        C272   1.482       .  S
C161        O166   1.267       .  A
C161        O164   1.263       .  A
C161        C245   1.480       .  S
Cd162       O169   2.424       .  S
Cd162       O168   2.474       .  S
Cd162       O167   2.451       .  S
Cd162       O163   2.464       .  S
Cd162       O166   2.467       .  S
Cd162       O164   2.445       .  S
C165        O169   1.264       .  A
C165        C416   1.480       .  S
O170        C173   1.265       .  A
O170       Cd175   2.459       .  S
C171        O180   1.268       .  A
C171        O176   1.265       .  A
C171        C260   1.483       .  S
O172        C178   1.268       .  A
O172       Cd175   2.500       .  S
C173        O181   1.263       .  A
C173        C221   1.476       .  S
C174        O179   1.268       .  A
C174        O177   1.262       .  A
C174        C248   1.476       .  S
Cd175       O182   2.417       .  S
Cd175       O181   2.450       .  S
Cd175       O180   2.469       .  S
Cd175       O176   2.446       .  S
Cd175       O179   2.482       .  S
Cd175       O177   2.428       .  S
C178        O182   1.263       .  A
C178        C392   1.477       .  S
O183        C186   1.262       .  A
O183       Cd188   2.448       .  S
C184        O193   1.264       .  A
C184        O189   1.266       .  A
C184        C224   1.480       .  S
O185        C191   1.268       .  A
O185       Cd188   2.473       .  S
C186        O194   1.265       .  A
C186        C320   1.485       .  S
C187        O192   1.265       .  A
C187        O190   1.263       .  A
C187        C368   1.483       .  S
Cd188       O195   2.443       .  S
Cd188       O194   2.487       .  S
Cd188       O193   2.445       .  S
Cd188       O189   2.472       .  S
Cd188       O192   2.475       .  S
Cd188       O190   2.452       .  S
C191        O195   1.264       .  A
C191        C212   1.481       .  S
O196        C199   1.266       .  A
O196       Cd201   2.454       .  S
C197        O206   1.266       .  A
C197        O202   1.264       .  A
C197        C296   1.487       .  S
O198        C204   1.267       .  A
O198       Cd201   2.480       .  S
C199        O207   1.266       .  A
C199        C233   1.481       .  S
C200        O205   1.269       .  A
C200        O203   1.263       .  A
C200        C356   1.480       .  S
Cd201       O208   2.452       .  S
Cd201       O207   2.438       .  S
Cd201       O206   2.462       .  S
Cd201       O202   2.459       .  S
Cd201       O205   2.501       .  S
Cd201       O203   2.425       .  S
C204        O208   1.263       .  A
C204        C209   1.481       .  S
C209        C210   1.402       .  A
C209        C214   1.417       .  A
C210        C211   1.399   1_556  A
C210        H219   1.084       .  S
C211        C212   1.416       .  A
C211        S215   1.802       .  S
C212        C213   1.403       .  A
C213        C214   1.399   1_554  A
C213        H220   1.084       .  S
C214        S216   1.803       .  S
S215        H218   1.407       .  S
S216        H217   1.407       .  S
C221        C222   1.402   1_556  A
C221        C226   1.415   1_556  A
C222        C223   1.397       .  A
C222        H231   1.084   1_554  S
C223        C224   1.415   1_545  A
C223        S227   1.802   1_545  S
C224        C225   1.404   1_565  A
C225        C226   1.399       .  A
C225        H232   1.084       .  S
C226        S228   1.803       .  S
S227        H230   1.408       .  S
S228        H229   1.408   1_554  S
C233        C234   1.405   1_556  A
C233        C238   1.415       .  A
C234        C235   1.398       .  A
C234        H243   1.084       .  S
C235        C236   1.416       .  A
C235        S239   1.802       .  S
C236        C237   1.406   1_554  A
C237        C238   1.398       .  A
C237        H244   1.083       .  S
C238        S240   1.802       .  S
S239        H242   1.408       .  S
S240        H241   1.408       .  S
C245        C246   1.403       .  A
C245        C250   1.417       .  A
C246        C247   1.397   1_554  A
C246        H255   1.084   1_554  S
C247        C248   1.414       .  A
C247        S251   1.803       .  S
C248        C249   1.403   1_556  A
C249        C250   1.400       .  A
C249        H256   1.084       .  S
C250        S252   1.803       .  S
S251        H254   1.407       .  S
S252        H253   1.408       .  S
C257        C258   1.407       .  A
C257        C262   1.419       .  A
C258        C259   1.400       .  A
C258        H267   1.084       .  S
C259        C260   1.415       .  A
C259        S263   1.803       .  S
C260        C261   1.403       .  A
C261        C262   1.399       .  A
C261        H268   1.084       .  S
C262        S264   1.801       .  S
S263        H266   1.408       .  S
S264        H265   1.408       .  S
C269        C270   1.405       .  A
C269        C274   1.415       .  A
C270        C271   1.401       .  A
C270        H279   1.083       .  S
C271        C272   1.416       .  A
C271        S275   1.802       .  S
C272        C273   1.404       .  A
C273        C274   1.395       .  A
C273        H280   1.083       .  S
C274        S276   1.803       .  S
S275        H278   1.407       .  S
S276        H277   1.408       .  S
C281        C282   1.401       .  A
C281        C286   1.418       .  A
C282        C283   1.398       .  A
C282        H291   1.084       .  S
C283        C284   1.418       .  A
C283        S287   1.803       .  S
C284        C285   1.403       .  A
C285        C286   1.400       .  A
C285        H292   1.084       .  S
C286        S288   1.804       .  S
S287        H290   1.408       .  S
S288        H289   1.408       .  S
C293        C294   1.404       .  A
C293        C298   1.415       .  A
C294        C295   1.398       .  A
C294        H303   1.084       .  S
C295        C296   1.418       .  A
C295        S299   1.802       .  S
C296        C297   1.406       .  A
C297        C298   1.399       .  A
C297        H304   1.084       .  S
C298        S300   1.802       .  S
S299        H302   1.408       .  S
S300        H301   1.408       .  S
C305        C306   1.404       .  A
C305        C310   1.415       .  A
C306        C307   1.399       .  A
C306        H315   1.084       .  S
C307        C308   1.415       .  A
C307        S311   1.803       .  S
C308        C309   1.404       .  A
C309        C310   1.399       .  A
C309        H316   1.084       .  S
C310        S312   1.802       .  S
S311        H314   1.407       .  S
S312        H313   1.407       .  S
C317        C318   1.404       .  A
C317        C322   1.415       .  A
C318        C319   1.397       .  A
C318        H327   1.084       .  S
C319        C320   1.416       .  A
C319        S323   1.803       .  S
C320        C321   1.406       .  A
C321        C322   1.402       .  A
C321        H328   1.084       .  S
C322        S324   1.802       .  S
S323        H326   1.407       .  S
S324        H325   1.407       .  S
C329        C330   1.404       .  A
C329        C334   1.412   1_565  A
C330        C331   1.400   1_565  A
C330        H339   1.084       .  S
C331        C332   1.414       .  A
C331        S335   1.802       .  S
C332        C333   1.405       .  A
C333        C334   1.396       .  A
C333        H340   1.084       .  S
C334        S336   1.803       .  S
S335        H338   1.408       .  S
S336        H337   1.407   1_545  S
C341        C342   1.403       .  A
C341        C346   1.417       .  A
C342        C343   1.400       .  A
C342        H351   1.084       .  S
C343        C344   1.417       .  A
C343        S347   1.803       .  S
C344        C345   1.402       .  A
C345        C346   1.400       .  A
C345        H352   1.084       .  S
C346        S348   1.803       .  S
S347        H350   1.407       .  S
S348        H349   1.408       .  S
C353        C354   1.403   1_455  A
C353        C358   1.413   1_455  A
C354        C355   1.395       .  A
C354        H363   1.084   1_655  S
C355        C356   1.414       .  A
C355        S359   1.805       .  S
C356        C357   1.406       .  A
C357        C358   1.405       .  A
C357        H364   1.084       .  S
C358        S360   1.802   1_655  S
S359        H362   1.407       .  S
S360        H361   1.407       .  S
C365        C366   1.402       .  A
C365        C370   1.412       .  A
C366        C367   1.398       .  A
C366        H375   1.084       .  S
C367        C368   1.416       .  A
C367        S371   1.803   1_554  S
C368        C369   1.406       .  A
C369        C370   1.399       .  A
C369        H376   1.083       .  S
C370        S372   1.803       .  S
S371        H374   1.407       .  S
S372        H373   1.408       .  S
C377        C378   1.405       .  A
C377        C382   1.416   1_556  A
C378        C379   1.397       .  A
C378        H387   1.084       .  S
C379        C380   1.414   1_556  A
C379        S383   1.803       .  S
C380        C381   1.404       .  A
C381        C382   1.400       .  A
C381        H388   1.084       .  S
C382        S384   1.801       .  S
S383        H386   1.408       .  S
S384        H385   1.407       .  S
C389        C390   1.404       .  A
C389        C394   1.416       .  A
C390        C391   1.396       .  A
C390        H399   1.084       .  S
C391        C392   1.412       .  A
C391        S395   1.805       .  S
C392        C393   1.404       .  A
C393        C394   1.404       .  A
C393        H400   1.084       .  S
C394        S396   1.801   1_556  S
S395        H398   1.408       .  S
S396        H397   1.407       .  S
C401        C402   1.405   1_556  A
C401        C406   1.416       .  A
C402        C403   1.397       .  A
C402        H411   1.083       .  S
C403        C404   1.412   1_545  A
C403        S407   1.803       .  S
C404        C405   1.402   1_554  A
C405        C406   1.397   1_565  A
C405        H412   1.083       .  S
C406        S408   1.802       .  S
S407        H410   1.408   1_545  S
S408        H409   1.408       .  S
C413        C414   1.406   1_455  A
C413        C418   1.413   1_455  A
C414        C415   1.406       .  A
C414        H423   1.083   1_655  S
C415        C416   1.415       .  A
C415        S419   1.801       .  S
C416        C417   1.402       .  A
C417        C418   1.394       .  A
C417        H424   1.084       .  S
C418        S420   1.805   1_655  S
S419        H422   1.407       .  S
S420        H421   1.407       .  S
C425        C426   1.405   1_554  A
C425        C430   1.415       .  A
C426        C427   1.400       .  A
C426        H435   1.084       .  S
C427        C428   1.416       .  A
C427        S431   1.801       .  S
C428        C429   1.405   1_556  A
C429        C430   1.397       .  A
C429        H436   1.084       .  S
C430        S432   1.803       .  S
S431        H434   1.408       .  S
S432        H433   1.408       .  S
C437        C438   1.405   1_554  A
C437        C442   1.417       .  A
C438        C439   1.400       .  A
C438        H447   1.084       .  S
C439        C440   1.415       .  A
C439        S443   1.803       .  S
C440        C441   1.402   1_556  A
C441        C442   1.398       .  A
C441        H448   1.084       .  S
C442        S444   1.803       .  S
S443        H446   1.407       .  S
S444        H445   1.408       .  S
C449        C450   1.404       .  A
C449        C454   1.415       .  A
C450        C451   1.396       .  A
C450        H459   1.084       .  S
C451        C452   1.413       .  A
C451        S455   1.805       .  S
C452        C453   1.406       .  A
C453        C454   1.405       .  A
C453        H460   1.083       .  S
C454        S456   1.801       .  S
S455        H458   1.407       .  S
S456        H457   1.407       .  S
C461        C462   1.405       .  A
C461        C466   1.416       .  A
C462        C463   1.397       .  A
C462        H471   1.083       .  S
C463        C464   1.417       .  A
C463        S467   1.803       .  S
C464        C465   1.404       .  A
C465        C466   1.400       .  A
C465        H472   1.084       .  S
C466        S468   1.801       .  S
S467        H470   1.408       .  S
S468        H469   1.408       .  S
C473        C474   1.404       .  A
C473        C478   1.414       .  A
C474        C475   1.405   1_655  A
C474        H483   1.084       .  S
C475        C476   1.416       .  A
C475        S479   1.801       .  S
C476        C477   1.403       .  A
C477        C478   1.395   1_455  A
C477        H484   1.084       .  S
C478        S480   1.806       .  S
S479        H482   1.407       .  S
S480        H481   1.408       .  S
C485        C486   1.405       .  A
C485        C490   1.415       .  A
C486        C487   1.397       .  A
C486        H495   1.083       .  S
C487        C488   1.416       .  A
C487        S491   1.803       .  S
C488        C489   1.406       .  A
C489        C490   1.402       .  A
C489        H496   1.083       .  S
C490        S492   1.802       .  S
S491        H494   1.408       .  S
S492        H493   1.408       .  S
C497        C498   1.404       .  A
C497        C502   1.415       .  A
C498        C499   1.399       .  A
C498        H507   1.084       .  S
C499        C500   1.414       .  A
C499        S503   1.803       .  S
C500        C501   1.405       .  A
C501        C502   1.400       .  A
C501        H508   1.084       .  S
C502        S504   1.802       .  S
S503        H506   1.408       .  S
S504        H505   1.407       .  S
C509        C510   1.403       .  A
C509        C514   1.413       .  A
C510        C511   1.404   1_455  A
C510        H519   1.084       .  S
C511        C512   1.417       .  A
C511        S515   1.802       .  S
C512        C513   1.404       .  A
C513        C514   1.397   1_655  A
C513        H520   1.084       .  S
C514        S516   1.805       .  S
S515        H518   1.407       .  S
S516        H517   1.407       .  S
C521        C522   1.404       .  A
C521        C526   1.416       .  A
C522        C523   1.398       .  A
C522        H531   1.083       .  S
C523        C524   1.414       .  A
C523        S527   1.803       .  S
C524        C525   1.404       .  A
C525        C526   1.401       .  A
C525        H532   1.084       .  S
C526        S528   1.802       .  S
S527        H530   1.408       .  S
S528        H529   1.407       .  S
C533        C534   1.406       .  A
C533        C538   1.417       .  A
C534        C535   1.397       .  A
C534        H543   1.083       .  S
C535        C536   1.413       .  A
C535        S539   1.803       .  S
C536        C537   1.404       .  A
C537        C538   1.400       .  A
C537        H544   1.083       .  S
C538        S540   1.801       .  S
S539        H542   1.408       .  S
S540        H541   1.407       .  S
C545        C546   1.408       .  A
C545        C550   1.417       .  A
C546        C547   1.408       .  A
C546        H555   1.083       .  S
C547        C548   1.416       .  A
C547        S551   1.801       .  S
C548        C549   1.403       .  A
C549        C550   1.395       .  A
C549        H556   1.084       .  S
C550        S552   1.804       .  S
S551        H554   1.407       .  S
S552        H553   1.408       .  S
C557        C558   1.406       .  A
C557        C562   1.416       .  A
C558        C559   1.399       .  A
C558        H567   1.083       .  S
C559        C560   1.414       .  A
C559        S563   1.802       .  S
C560        C561   1.406       .  A
C561        C562   1.399       .  A
C561        H568   1.083       .  S
C562        S564   1.802       .  S
S563        H566   1.407       .  S
S564        H565   1.408       .  S
C569        C570   1.403       .  A
C569        C574   1.411   1_565  A
C570        C571   1.399   1_565  A
C570        H579   1.084       .  S
C571        C572   1.418       .  A
C571        S575   1.801       .  S
C572        C573   1.407       .  A
C573        C574   1.396       .  A
C573        H580   1.083       .  S
C574        S576   1.803       .  S
S575        H578   1.408       .  S
S576        H577   1.407   1_545  S
C581        C582   1.405       .  A
C581        C586   1.414       .  A
C582        C583   1.402       .  A
C582        H591   1.084       .  S
C583        C584   1.416       .  A
C583        S587   1.802       .  S
C584        C585   1.405       .  A
C585        C586   1.399       .  A
C585        H592   1.084       .  S
C586        S588   1.803       .  S
S587        H590   1.408       .  S
S588        H589   1.408       .  S
