geometry optimzed in LAMMPS
_audit_creation_date              2020-12-01 
_audit_creation_method            'lammps2cif' 
_symmetry_space_group_name_H-M    'P1' 
_symmetry_Int_Tables_number       1 
_symmetry_cell_setting            triclinic 
loop_ 
_symmetry_equiv_pos_as_xyz 
  x,y,z 
_cell_length_a                    33.38603748 
_cell_length_b                    33.39128719733174 
_cell_length_c                    33.39342356958885 
_cell_angle_alpha                 90.59372039226629 
_cell_angle_beta                  89.40075392517939 
_cell_angle_gamma                 90.56480527351015 
loop_ 
_atom_site_label 
_atom_site_type_symbol 
_atom_site_fract_x 
_atom_site_fract_y 
_atom_site_fract_z 
_atom_site_charge 
C1          C  0.40539864  0.15528687  0.21134827     0.03900
C2          C  0.44277033  0.17260053  0.21302647    -0.12300
C3          C  0.46487059  0.17277191  0.24768518     0.01400
C4          C  0.44660613  0.16552386  0.28402145    -0.10800
C5          C  0.40834350  0.15090992  0.28724854     0.03900
C6          C  0.38678543  0.14423416  0.24981898    -0.10200
H7          H  0.45660343  0.18300012  0.18541821     0.09500
H8          H  0.46174780  0.17438633  0.31096332     0.07000
H9          H  0.35779487  0.12994147  0.25103347     0.06800
C10         C  0.21643583  0.41468581  0.13959908     0.03900
C11         C  0.25379666  0.39305567  0.13275285    -0.12300
C12         C  0.29230538  0.41141062  0.14407818     0.01400
C13         C  0.29071718  0.44855593  0.16184606    -0.10800
C14         C  0.25615511  0.47083258  0.16195887     0.03900
C15         C  0.21976686  0.45283653  0.15439530    -0.10200
H16         H  0.25247625  0.36426291  0.11811427     0.09500
H17         H  0.31835763  0.46216177  0.17246489     0.07000
H18         H  0.19285786  0.46803363  0.16325110     0.06800
C19         C  0.15442176  0.29958574  0.39833390     0.03900
C20         C  0.19601258  0.29826558  0.39967814    -0.12300
C21         C  0.21667573  0.26219190  0.40235473     0.01400
C22         C  0.19609448  0.22585764  0.39878988    -0.10800
C23         C  0.15479185  0.22376369  0.39609204     0.03900
C24         C  0.13339751  0.26158912  0.39388384    -0.10200
H25         H  0.21252809  0.32633299  0.40201797     0.09500
H26         H  0.21197616  0.19821590  0.40235894     0.07000
H27         H  0.10159451  0.26157726  0.38801537     0.06800
C28         C  0.11263915  0.16622704  0.46317146     0.03900
C29         C  0.11802514  0.14411905  0.50030330    -0.12300
C30         C  0.10706867  0.16236162  0.03910237     0.01400
C31         C  0.09029080  0.19975775  0.03788581    -0.10800
C32         C  0.09134668  0.22239463  0.50349021     0.03900
C33         C  0.09944003  0.20466922  0.46698799    -0.10200
H34         H  0.13119150  0.11485999  0.49860846     0.09500
H35         H  0.07926604  0.21310916  0.06558224     0.07000
H36         H  0.09117095  0.21996490  0.44035112     0.06800
C37         C  0.15117746  0.04854769  0.09927006     0.03900
C38         C  0.15274544  0.04714835  0.05781727    -0.12300
C39         C  0.15564483  0.01120705  0.03620609     0.01400
C40         C  0.15197883  0.47476628  0.05592551    -0.10800
C41         C  0.15096270  0.47273138  0.09748618     0.03900
C42         C  0.14832424  0.01053640  0.11972380    -0.10200
H43         H  0.15624667  0.07521017  0.04237808     0.09500
H44         H  0.15386554  0.44706800  0.03874498     0.07000
H45         H  0.14285662  0.01051450  0.15170249     0.06800
C46         C  0.40341580  0.35996191  0.20916407     0.03900
C47         C  0.40486457  0.31836863  0.21038536    -0.12300
C48         C  0.40719116  0.29763722  0.24643441     0.01400
C49         C  0.40325221  0.31812957  0.28278229    -0.10800
C50         C  0.40071339  0.35942717  0.28496879     0.03900
C51         C  0.39873198  0.38090183  0.24718880    -0.10200
H52         H  0.40746798  0.30191035  0.18230449     0.09500
H53         H  0.40641500  0.30214327  0.31041555     0.07000
H54         H  0.39285029  0.41270446  0.24725180     0.06800
C55         C  0.10384814  0.36321653  0.46121788     0.03900
C56         C  0.06238338  0.36201769  0.46287605    -0.12300
C57         C  0.04097619  0.35877054  0.49890340     0.01400
C58         C  0.06089907  0.36211555  0.03524588    -0.10800
C59         C  0.10248200  0.36334102  0.03701975     0.03900
C60         C  0.12452903  0.36594263  0.49910463    -0.10200
H61         H  0.04671995  0.35899129  0.43490427     0.09500
H62         H  0.04387894  0.35998206  0.06302143     0.07000
H63         H  0.15652612  0.37132239  0.49895576     0.06800
O64         O  0.06291823  0.27449140  0.47086682    -0.72200
O65         O  0.44904140  0.24665179  0.46153869    -0.73200
O66         O  0.99657299  0.31760733  0.46480129    -0.61800
O67         O  0.51572869  0.20108280  0.46723213    -0.70200
O68         O  0.51170028  0.20274767  0.03340091    -0.69800
O69         O  0.99235384  0.31921785  0.03096972    -0.61000
O70         O  0.44525568  0.24579295  0.02732391    -0.73500
O71         O  0.05907801  0.27379521  0.03666006    -0.72300
Cu72       Cu  0.00645092  0.25974516  0.46278730     1.04600
Cu73       Cu  0.00170705  0.26059898  0.03539829     1.04300
C74         C  0.07548567  0.26225637  0.50417785     0.94000
C75         C  0.43270119  0.25816678  0.99406946     0.93100
C76         C  0.00415840  0.33490715  0.49809548     0.85300
C77         C  0.50398597  0.18543007  0.00015387     0.91600
C78         C  0.34789981  0.04699338  0.10785750     0.03900
C79         C  0.37008343  0.00989055  0.11319868    -0.12300
C80         C  0.35190748  0.47108045  0.10223783     0.01400
C81         C  0.31443689  0.47227697  0.08560936    -0.10800
C82         C  0.29176921  0.00666982  0.08662538     0.03900
C83         C  0.30947111  0.04318096  0.09465919    -0.10200
H84         H  0.39932204  0.01161601  0.12635828     0.09500
H85         H  0.30108145  0.44456709  0.07465708     0.07000
H86         H  0.29415680  0.06982797  0.08639359     0.06800
O87         O  0.19497921  0.47893794  0.98758467    -0.72200
O88         O  0.31143850  0.47558023  0.50703008    -0.73200
O89         O  0.24031223  0.47341356  0.05453202    -0.61800
O90         O  0.26846073  0.48146856  0.44065780    -0.70200
O91         O  0.26789025  0.04728803  0.44394521    -0.69800
O92         O  0.23987256  0.03923993  0.05786326    -0.61000
O93         O  0.31336721  0.04174670  0.51085847    -0.73500
O94         O  0.19684997  0.04511147  0.99159435    -0.72300
Cu95       Cu  0.25354599  0.47403506  0.49711749     1.04600
Cu96       Cu  0.25475277  0.04667733  0.50139367     1.04300
C97         C  0.17942607  0.01191283  0.99932000     0.94000
C98         C  0.32886005  0.00872943  0.49913843     0.93100
C99         C  0.25193703  0.00597871  0.07071282     0.85300
C100        C  0.25628599  0.01468405  0.42781758     0.91600
C101        C  0.40550804  0.15691843  0.46152957     0.03900
C102        C  0.44709584  0.15821197  0.46321327    -0.12300
C103        C  0.46710826  0.16161597  0.99949991     0.01400
C104        C  0.44578163  0.15839956  0.03560090    -0.10800
C105        C  0.40430113  0.15713187  0.03736090     0.03900
C106        C  0.38355192  0.15431181  0.99950632    -0.10200
H107        H  0.46404884  0.16034677  0.43539989     0.09500
H108        H  0.46151989  0.16145757  0.06353153     0.07000
H109        H  0.35156337  0.14889257  0.99972441     0.06800
C110        C  0.35707118  0.36252348  0.14639990     0.46200
H111        H  0.33738434  0.34428746  0.16631650    -0.02800
C112        C  0.40184978  0.40604533  0.09964113     0.46300
H113        H  0.42062553  0.42468723  0.07929608    -0.02800
C114        C  0.33593470  0.40089459  0.13261376    -0.16500
C115        C  0.39692611  0.37580676  0.16686600    -0.16300
C116        C  0.36967288  0.33977214  0.10780462    -0.16600
C117        C  0.36295344  0.42765827  0.11335181    -0.16600
C118        C  0.42366030  0.39424859  0.13941780    -0.16200
C119        C  0.38783063  0.36564814  0.07950021    -0.16500
C120        C  0.35367529  0.29659394  0.10259565     0.03900
C121        C  0.31235366  0.29459246  0.10030935    -0.12300
C122        C  0.29165003  0.25833547  0.09694335     0.01400
C123        C  0.31222480  0.22222333  0.09960760    -0.10800
C124        C  0.35383504  0.22079082  0.10047579     0.03900
C125        C  0.37501355  0.25872970  0.10464175    -0.10200
H126        H  0.29653699  0.32225007  0.09680486     0.09500
H127        H  0.29559536  0.19420646  0.09748840     0.07000
H128        H  0.40687026  0.25865989  0.11022113     0.06800
C129        C  0.39968857  0.11116439  0.10169994     0.46200
H130        H  0.41826915  0.09080411  0.08285663    -0.02800
C131        C  0.35629188  0.15789704  0.14670207     0.46300
H132        H  0.33808747  0.17776749  0.16648090    -0.02800
C133        C  0.38792756  0.15097281  0.08000199    -0.16500
C134        C  0.35935330  0.09106671  0.11581510    -0.16100
C135        C  0.42136257  0.12476197  0.14051875    -0.16600
C136        C  0.36954599  0.17841258  0.10682256    -0.16600
C137        C  0.33351416  0.11930691  0.13413081    -0.16200
C138        C  0.39473899  0.14407394  0.16767444    -0.16500
C139        C  0.21454116  0.11154560  0.14999925     0.03900
C140        C  0.21595035  0.11019094  0.19158541    -0.12300
C141        C  0.25207403  0.10731720  0.21213466     0.01400
C142        C  0.28837212  0.11087505  0.19146748    -0.10800
C143        C  0.29036655  0.11389109  0.15019826     0.03900
C144        C  0.25249453  0.11611931  0.12890740    -0.10200
H145        H  0.18791197  0.10787727  0.20816971     0.09500
H146        H  0.31605649  0.10707113  0.20721832     0.07000
H147        H  0.25243755  0.12207565  0.09712904     0.06800
C148        C  0.04198873  0.10976104  0.35291019     0.03900
C149        C  0.00406690  0.13045379  0.35546963    -0.12300
C150        C  0.46614797  0.10843995  0.35259823     0.01400
C151        C  0.46792860  0.06686207  0.35128124    -0.10800
C152        C  0.00427889  0.04691158  0.34804652     0.03900
C153        C  0.04032124  0.06828693  0.35153046    -0.10200
H154        H  0.00418715  0.16243593  0.36090788     0.09500
H155        H  0.44015769  0.04987179  0.34897787     0.07000
H156        H  0.06828968  0.05262560  0.34851797     0.06800
O157        O  0.03844001  0.00258965  0.30679181    -0.72200
O158        O  0.03573335  0.52206104  0.19035733    -0.73200
O159        O  0.03182814  0.06898045  0.26403269    -0.61800
O160        O  0.04192305  0.45528758  0.23572177    -0.70200
O161        O  0.47614358  0.45128316  0.23465046    -0.69800
O162        O  0.46605143  0.06500752  0.26286361    -0.61000
O163        O  0.46955604  0.51762209  0.19189795    -0.73500
O164        O  0.47227051  0.99827390  0.30836845    -0.72300
Cu165      Cu  0.04029092  0.01264363  0.24899076     1.04600
Cu166      Cu  0.46768648  0.00763096  0.24968802     1.04300
C167        C  0.00512956  0.01011453  0.32409712     0.94000
C168        C  0.00289900  0.51023616  0.17458066     0.93100
C169        C  0.99859464  0.08146968  0.25154684     0.85300
C170        C  0.00940978  0.43878442  0.24705054     0.91600
C171        C  0.10768488  0.16071147  0.21362448     0.03900
C172        C  0.10560863  0.20203247  0.21570043    -0.12300
C173        C  0.10174766  0.22264977  0.25195555     0.01400
C174        C  0.10391852  0.20201084  0.28806399    -0.10800
C175        C  0.10498328  0.16040234  0.28940534     0.03900
C176        C  0.10947043  0.13930599  0.25144890    -0.10200
H177        H  0.10262615  0.21793867  0.18807201     0.09500
H178        H  0.10141874  0.21857715  0.31609271     0.07000
H179        H  0.11509286  0.10745674  0.25148237     0.06800
C180        C  0.16031536  0.47341709  0.39083412     0.03900
C181        C  0.13808373  0.01049276  0.38547964    -0.12300
C182        C  0.15622555  0.04932377  0.39641236     0.01400
C183        C  0.19367386  0.04820777  0.41306577    -0.10800
C184        C  0.21640601  0.01387139  0.41201660     0.03900
C185        C  0.19877414  0.47731663  0.40396422    -0.10200
H186        H  0.10884921  0.00874836  0.37231594     0.09500
H187        H  0.20700249  0.07596036  0.42396008     0.07000
H188        H  0.21417786  0.45070962  0.41218462     0.06800
C189        C  0.10641907  0.11437849  0.39891889     0.46200
H190        H  0.08762396  0.09576953  0.41927754    -0.02800
C191        C  0.15127771  0.15783636  0.35215375     0.46300
H192        H  0.17099751  0.17605211  0.33225092    -0.02800
C193        C  0.14523710  0.09269360  0.38515485    -0.16500
C194        C  0.08460232  0.12620207  0.35916469    -0.16300
C195        C  0.12057019  0.15472140  0.41906870    -0.16600
C196        C  0.17229368  0.11936947  0.36581038    -0.16600
C197        C  0.11136314  0.14464342  0.33173405    -0.16200
C198        C  0.13880497  0.18057156  0.39079462    -0.16500
C199        C  0.29175610  0.10552007  0.35853422     0.03900
C200        C  0.28837213  0.06723829  0.34399510    -0.12300
C201        C  0.25195408  0.04917044  0.33661734     0.01400
C202        C  0.21739809  0.07145467  0.33672519    -0.10800
C203        C  0.21586824  0.10872522  0.35425755     0.03900
C204        C  0.25439811  0.12718652  0.36530220    -0.10200
H205        H  0.31525069  0.05199929  0.33511847     0.09500
H206        H  0.18973008  0.05779305  0.32625401     0.07000
H207        H  0.25569729  0.15612374  0.37968630     0.06800
C208        C  0.35733840  0.15648679  0.35281480     0.46200
H209        H  0.33832428  0.17546711  0.33380834    -0.02800
C210        C  0.40178243  0.11210242  0.39725338     0.46300
H211        H  0.42085271  0.09308349  0.41630785    -0.02800
C212        C  0.39697233  0.14221189  0.33104632    -0.16500
C213        C  0.37164163  0.17831625  0.39239886    -0.16300
C214        C  0.33559850  0.11684080  0.36710883    -0.16600
C215        C  0.42325623  0.12411328  0.35828054    -0.16600
C216        C  0.38972997  0.15110375  0.41870583    -0.16200
C217        C  0.36285261  0.09057056  0.38519959    -0.16500
C218        C  0.35909190  0.29815178  0.40030493     0.03900
C219        C  0.34164067  0.29672628  0.43763318    -0.12300
C220        C  0.34151723  0.26222084  0.45996849     0.01400
C221        C  0.34879217  0.22575945  0.44193242    -0.10800
C222        C  0.36321975  0.22224467  0.40361452     0.03900
C223        C  0.37002017  0.25955332  0.38186743    -0.10200
H224        H  0.33119199  0.32441967  0.45127171     0.09500
H225        H  0.33991937  0.19893199  0.45725435     0.07000
H226        H  0.38433686  0.25818979  0.35288285     0.06800
C227        C  0.40331417  0.40773550  0.39435624     0.46200
H228        H  0.42357413  0.42666394  0.41293743    -0.02800
C229        C  0.35675432  0.36260415  0.35097112     0.46300
H230        H  0.33695050  0.34277003  0.33277779    -0.02800
C231        C  0.36340453  0.42928685  0.38256958    -0.16500
C232        C  0.42353954  0.39361736  0.35405089    -0.16300
C233        C  0.38979060  0.36892922  0.41608661    -0.16600
C234        C  0.33608009  0.40238836  0.36418417    -0.16600
C235        C  0.39533953  0.37531008  0.32819039    -0.16200
C236        C  0.37053740  0.34171472  0.38948499    -0.16500
C237        C  0.29364403  0.40858001  0.34855717     0.03900
C238        C  0.25576029  0.40424553  0.36980903    -0.12300
C239        C  0.21785076  0.40637919  0.34859219     0.01400
C240        C  0.21973178  0.40906861  0.30730947    -0.10800
C241        C  0.25594848  0.41241415  0.28651190     0.03900
C242        C  0.29211752  0.40956263  0.30696328    -0.10200
H243        H  0.25590311  0.39851675  0.40163054     0.09500
H244        H  0.19202568  0.41284923  0.29164179     0.07000
H245        H  0.32010449  0.41169348  0.29027110     0.06800
C246        C  0.10850732  0.40920544  0.39691866     0.46200
H247        H  0.08988571  0.42955275  0.41573562    -0.02800
C248        C  0.15196954  0.36246353  0.35200907     0.46300
H249        H  0.17020796  0.34257643  0.33228097    -0.02800
C250        C  0.08689900  0.39561238  0.35804033    -0.16500
C251        C  0.14888147  0.42931068  0.38291658    -0.16300
C252        C  0.12025855  0.36939020  0.41862473    -0.16600
C253        C  0.11359940  0.37636716  0.33091287    -0.16600
C254        C  0.17473769  0.40103455  0.36468001    -0.16200
C255        C  0.13864451  0.34192947  0.39184719    -0.16500
C256        C  0.46625516  0.41069223  0.14565768     0.03900
C257        C  0.00420256  0.39004129  0.14315698    -0.12300
C258        C  0.04208636  0.41212392  0.14597774     0.01400
C259        C  0.04023599  0.45369612  0.14721996    -0.10800
C260        C  0.00384779  0.47357621  0.15046365     0.03900
C261        C  0.46785770  0.45215249  0.14695362    -0.10200
H262        H  0.00412613  0.35804810  0.13777686     0.09500
H263        H  0.06797895  0.47073984  0.14949451     0.07000
H264        H  0.43986368  0.46777013  0.14994312     0.06800
C265        C  0.15081093  0.36397717  0.14559339     0.46200
H266        H  0.16984629  0.34501436  0.16459531    -0.02800
C267        C  0.10631806  0.40832467  0.10115291     0.46300
H268        H  0.08722936  0.42732405  0.08209553    -0.02800
C269        C  0.11136081  0.37849679  0.16746915    -0.16500
C270        C  0.17261121  0.40345193  0.13101306    -0.16300
C271        C  0.13623990  0.34203487  0.10620605    -0.16600
C272        C  0.08499073  0.39652144  0.14025880    -0.16600
C273        C  0.14535971  0.42976208  0.11297218    -0.16200
C274        C  0.11817983  0.36920196  0.07984205    -0.16500
C275        C  0.14471183  0.29812973  0.09509643     0.03900
C276        C  0.13777801  0.26082234  0.11679387    -0.12300
C277        C  0.14897923  0.22223901  0.09846957     0.01400
C278        C  0.16667633  0.22370870  0.06126070    -0.10800
C279        C  0.16684098  0.25823229  0.03893962     0.03900
C280        C  0.15943064  0.29466727  0.05692374    -0.10200
H281        H  0.12317090  0.26221655  0.14558758     0.09500
H282        H  0.17723945  0.19603450  0.04767081     0.07000
H283        H  0.16832049  0.32152840  0.04166520     0.06800
C284        C  0.10010666  0.36975782  0.21125941     0.03900
C285        C  0.06197930  0.35489207  0.21441190    -0.12300
C286        C  0.04373382  0.34751757  0.25069850     0.01400
C287        C  0.06578004  0.34773138  0.28540207    -0.10800
C288        C  0.10305992  0.36522815  0.28716698     0.03900
C289        C  0.12161566  0.37649854  0.24871155    -0.10200
H290        H  0.04691499  0.34601090  0.18742426     0.09500
H291        H  0.05195719  0.33722148  0.31297217     0.07000
H292        H  0.15048567  0.39098961  0.24748830     0.06800
C293        C  0.46771208  0.40147055  0.34272923     0.03900
C294        C  0.00470815  0.39600348  0.36503949    -0.12300
C295        C  0.04360047  0.40705492  0.34708290     0.01400
C296        C  0.04263652  0.42402124  0.30979028    -0.10800
C297        C  0.00843718  0.42289731  0.28688541     0.03900
C298        C  0.47179651  0.41465123  0.30430964    -0.10200
H299        H  0.00287036  0.38265443  0.39420431     0.09500
H300        H  0.07042583  0.43509528  0.29666528     0.07000
H301        H  0.44525180  0.42284738  0.28882148     0.06800
C302        C  0.35694178  0.47178878  0.39911203     0.03900
C303        C  0.35528808  0.47327537  0.44057676    -0.12300
C304        C  0.35246220  0.00928573  0.46211469     0.01400
C305        C  0.35616312  0.04566920  0.44230964    -0.10800
C306        C  0.35724035  0.04761560  0.40074504     0.03900
C307        C  0.35988613  0.00976064  0.37859018    -0.10200
H308        H  0.35176379  0.44526098  0.45607979     0.09500
H309        H  0.35429406  0.07340213  0.45942824     0.07000
H310        H  0.36541732  0.00971649  0.34662223     0.06800
C311        C  0.04048488  0.11875307  0.15588937     0.03900
C312        C  0.03633426  0.10560368  0.19432772    -0.12300
C313        C  0.99965860  0.09729918  0.21168092     0.01400
C314        C  0.46550242  0.09616494  0.18871711    -0.10800
C315        C  0.46460899  0.11317145  0.15144398     0.03900
C316        C  0.00351601  0.12422083  0.13353351    -0.10200
H317        H  0.06284593  0.09746204  0.20988694     0.09500
H318        H  0.43767801  0.08513831  0.20181223     0.07000
H319        H  0.00536259  0.13758936  0.10437896     0.06800
C320        C  0.15146393  0.15760786  0.14759111     0.46200
H321        H  0.17131446  0.17738718  0.16579354    -0.02800
C322        C  0.10483926  0.11261186  0.10416453     0.46300
H323        H  0.08456046  0.09373026  0.08555678    -0.02800
C324        C  0.13755392  0.17864240  0.10918279    -0.16500
C325        C  0.17213587  0.11786305  0.13427638    -0.16300
C326        C  0.11293307  0.14480243  0.17041786    -0.16600
C327        C  0.11832388  0.15150123  0.08251235    -0.16600
C328        C  0.14476551  0.09102399  0.11587050    -0.16200
C329        C  0.08467180  0.12658051  0.14455880    -0.16500
C330        C  0.39570270  0.35418442  0.03536755     0.03900
C331        C  0.39027105  0.37635288  0.49827255    -0.12300
C332        C  0.40120403  0.35815434  0.45944863     0.01400
C333        C  0.41805382  0.32080547  0.46057952    -0.10800
C334        C  0.41696712  0.29808489  0.99490429     0.03900
C335        C  0.40884419  0.31571825  0.03145435    -0.10200
H336        H  0.37707716  0.40559057  0.49998940     0.09500
H337        H  0.42903762  0.30750075  0.43284096     0.07000
H338        H  0.41707880  0.30032611  0.05804032     0.06800
O339        O  0.26484541  0.22940693  0.44003818    -0.72200
O340        O  0.24565221  0.22503170  0.05691670    -0.73200
O341        O  0.19783493  0.22475766  0.98679244    -0.61800
O342        O  0.31187103  0.22993338  0.51236729    -0.70200
O343        O  0.31081112  0.29582144  0.51229504    -0.69800
O344        O  0.19674276  0.29066616  0.98682205    -0.61000
O345        O  0.24365699  0.29122888  0.05914936    -0.73500
O346        O  0.26277357  0.29560105  0.44224721    -0.72300
Cu347      Cu  0.25521002  0.22394565  0.49874426     1.04600
Cu348      Cu  0.25335867  0.29668378  0.50042802     1.04300
C349        C  0.25383718  0.26254317  0.42500078     0.94000
C350        C  0.25455058  0.25806593  0.07421823     0.93100
C351        C  0.18281578  0.25752119  0.99892075     0.85300
C352        C  0.32575931  0.26303046  0.50011552     0.91600
O353        O  0.28488407  0.06938036  0.26012726    -0.72200
O354        O  0.28923864  0.45255694  0.24064501    -0.73200
O355        O  0.28952239  0.52290836  0.19306494    -0.61800
O356        O  0.28436939  0.99684945  0.30696630    -0.70200
O357        O  0.21847216  0.99690058  0.30580773    -0.69800
O358        O  0.22360521  0.52286487  0.19187493    -0.61000
O359        O  0.22303588  0.45030995  0.23857745    -0.73500
O360        O  0.21867763  0.06715867  0.25799010    -0.72300
Cu361      Cu  0.29034630  0.01069368  0.25036305     1.04600
Cu362      Cu  0.21758824  0.00901687  0.24842438     1.04300
C363        C  0.25173912  0.08445476  0.24916019     0.94000
C364        C  0.25620156  0.43522769  0.24947329     0.93100
C365        C  0.25679196  0.51081816  0.17797197     0.85300
C366        C  0.25122785  0.00905102  0.32082790     0.91600
O367        O  0.44469592  0.24962740  0.27955773    -0.72200
O368        O  0.06151253  0.26886582  0.28477520    -0.73200
O369        O  0.99130509  0.31676498  0.28387560    -0.61800
O370        O  0.51692672  0.20272666  0.28022079    -0.70200
O371        O  0.51744481  0.20323329  0.21431503    -0.69800
O372        O  0.99198411  0.31732777  0.21795195    -0.61000
O373        O  0.06421999  0.27047247  0.21858315    -0.73500
O374        O  0.44733392  0.25142417  0.21336748    -0.72300
Cu375      Cu  0.00330510  0.25940397  0.28543514     1.04600
Cu376      Cu  0.00557012  0.26068490  0.21269979     1.04300
C377        C  0.42986703  0.26049285  0.24628628     0.94000
C378        C  0.07904868  0.25976439  0.25191436     0.93100
C379        C  0.00373198  0.33152758  0.25111471     0.85300
C380        C  0.50499731  0.18855312  0.24712180     0.91600
C381        C  0.40539877  0.15528691  0.71134827     0.03900
C382        C  0.44277046  0.17260059  0.71302647    -0.12300
C383        C  0.46487069  0.17277199  0.74768518     0.01400
C384        C  0.44660630  0.16552390  0.78402151    -0.10800
C385        C  0.40834362  0.15090994  0.78724855     0.03900
C386        C  0.38678557  0.14423420  0.74981898    -0.10200
H387        H  0.45660353  0.18300015  0.68541825     0.09500
H388        H  0.46174780  0.17438621  0.81096308     0.07000
H389        H  0.35779498  0.12994149  0.75103348     0.06800
C390        C  0.21643594  0.41468573  0.63959923     0.03900
C391        C  0.25379679  0.39305572  0.63275297    -0.12300
C392        C  0.29230546  0.41141065  0.64407822     0.01400
C393        C  0.29071727  0.44855600  0.66184607    -0.10800
C394        C  0.25615514  0.47083261  0.66195888     0.03900
C395        C  0.21976699  0.45283647  0.65439534    -0.10200
H396        H  0.25247643  0.36426259  0.61811425     0.09500
H397        H  0.31835767  0.46216184  0.67246485     0.07000
H398        H  0.19285757  0.46803377  0.66325127     0.06800
C399        C  0.15442185  0.29958578  0.89833381     0.03900
C400        C  0.19601272  0.29826559  0.89967791    -0.12300
C401        C  0.21667581  0.26219194  0.90235456     0.01400
C402        C  0.19609465  0.22585753  0.89878984    -0.10800
C403        C  0.15479186  0.22376372  0.89609204     0.03900
C404        C  0.13339780  0.26158916  0.89388389    -0.10200
H405        H  0.21252821  0.32633300  0.90201766     0.09500
H406        H  0.21197578  0.19821662  0.90235882     0.07000
H407        H  0.10159361  0.26157735  0.88801524     0.06800
C408        C  0.11263915  0.16622708  0.96317145     0.03900
C409        C  0.11802505  0.14411904  0.00030333    -0.12300
C410        C  0.10706876  0.16236150  0.53910239     0.01400
C411        C  0.09029092  0.19975760  0.53788580    -0.10800
C412        C  0.09134653  0.22239469  0.00349010     0.03900
C413        C  0.09943994  0.20466922  0.96698792    -0.10200
H414        H  0.13119115  0.11486029  0.99860856     0.09500
H415        H  0.07926596  0.21310911  0.56558258     0.07000
H416        H  0.09117087  0.21996486  0.94035097     0.06800
C417        C  0.15117750  0.04854767  0.59927018     0.03900
C418        C  0.15274531  0.04714837  0.55781740    -0.12300
C419        C  0.15564476  0.01120695  0.53620624     0.01400
C420        C  0.15197882  0.47476638  0.55592570    -0.10800
C421        C  0.15096279  0.47273126  0.59748628     0.03900
C422        C  0.14832436  0.01053643  0.61972418    -0.10200
H423        H  0.15624638  0.07520988  0.54237829     0.09500
H424        H  0.15386555  0.44706732  0.53874462     0.07000
H425        H  0.14285691  0.01051454  0.65170193     0.06800
C426        C  0.40341585  0.35996191  0.70916410     0.03900
C427        C  0.40486471  0.31836858  0.71038529    -0.12300
C428        C  0.40719127  0.29763723  0.74643445     0.01400
C429        C  0.40325238  0.31812960  0.78278230    -0.10800
C430        C  0.40071352  0.35942718  0.78496880     0.03900
C431        C  0.39873197  0.38090186  0.74718882    -0.10200
H432        H  0.40746806  0.30191060  0.68230493     0.09500
H433        H  0.40641516  0.30214324  0.81041564     0.07000
H434        H  0.39285021  0.41270429  0.74725182     0.06800
C435        C  0.10384826  0.36321655  0.96121784     0.03900
C436        C  0.06238337  0.36201768  0.96287573    -0.12300
C437        C  0.04097616  0.35877061  0.99890318     0.01400
C438        C  0.06089925  0.36211550  0.53524602    -0.10800
C439        C  0.10248211  0.36334091  0.53701981     0.03900
C440        C  0.12452880  0.36594267  0.99910464    -0.10200
H441        H  0.04672058  0.35899127  0.93490476     0.09500
H442        H  0.04387908  0.35998200  0.56302174     0.07000
H443        H  0.15652695  0.37132255  0.99895591     0.06800
O444        O  0.06291821  0.27449143  0.97086663    -0.72200
O445        O  0.44904150  0.24665204  0.96153869    -0.73200
O446        O  0.99657298  0.31760744  0.96480103    -0.61800
O447        O  0.51572861  0.20108288  0.96723205    -0.70200
O448        O  0.51170040  0.20274741  0.53340099    -0.69800
O449        O  0.99235401  0.31921758  0.53097000    -0.61000
O450        O  0.44525566  0.24579272  0.52732390    -0.73500
O451        O  0.05907808  0.27379501  0.53666023    -0.72300
Cu452      Cu  0.00645091  0.25974525  0.96278722     1.04600
Cu453      Cu  0.00170714  0.26059872  0.53539839     1.04300
C454        C  0.07548559  0.26225646  0.00417770     0.94000
C455        C  0.43270117  0.25816661  0.49406947     0.93100
C456        C  0.00415829  0.33490734  0.99809519     0.85300
C457        C  0.50398608  0.18542989  0.50015390     0.91600
C458        C  0.34789980  0.04699342  0.60785751     0.03900
C459        C  0.37008347  0.00989058  0.61319864    -0.12300
C460        C  0.35190749  0.47108046  0.60223783     0.01400
C461        C  0.31443679  0.47227693  0.58560937    -0.10800
C462        C  0.29176918  0.00666985  0.58662543     0.03900
C463        C  0.30947112  0.04318088  0.59465925    -0.10200
H464        H  0.39932204  0.01161609  0.62635817     0.09500
H465        H  0.30108157  0.44456748  0.57465730     0.07000
H466        H  0.29415649  0.06982836  0.58639361     0.06800
O467        O  0.19497914  0.47893810  0.48758466    -0.72200
O468        O  0.31143857  0.47558016  0.00702994    -0.73200
O469        O  0.24031216  0.47341363  0.55453201    -0.61800
O470        O  0.26846082  0.48146852  0.94065781    -0.70200
O471        O  0.26789043  0.04728793  0.94394523    -0.69800
O472        O  0.23987245  0.03923998  0.55786340    -0.61000
O473        O  0.31336731  0.04174638  0.01085863    -0.73500
O474        O  0.19684978  0.04511147  0.49159442    -0.72300
Cu475      Cu  0.25354603  0.47403489  0.99711747     1.04600
Cu476      Cu  0.25475292  0.04667711  0.00139365     1.04300
C477        C  0.17942594  0.01191287  0.49932011     0.94000
C478        C  0.32886014  0.00872915  0.99913845     0.93100
C479        C  0.25193698  0.00597871  0.57071288     0.85300
C480        C  0.25628616  0.01468401  0.92781757     0.91600
C481        C  0.40550803  0.15691837  0.96152957     0.03900
C482        C  0.44709584  0.15821199  0.96321318    -0.12300
C483        C  0.46710833  0.16161585  0.49949990     0.01400
C484        C  0.44578172  0.15839935  0.53560088    -0.10800
C485        C  0.40430117  0.15713191  0.53736091     0.03900
C486        C  0.38355217  0.15431201  0.49950635    -0.10200
H487        H  0.46404860  0.16034674  0.93540028     0.09500
H488        H  0.46152006  0.16145720  0.56353161     0.07000
H489        H  0.35156237  0.14889269  0.49972448     0.06800
C490        C  0.35707120  0.36252346  0.64639994     0.46200
H491        H  0.33738445  0.34428753  0.66631640    -0.02800
C492        C  0.40184970  0.40604522  0.59964123     0.46300
H493        H  0.42062595  0.42468762  0.57929561    -0.02800
C494        C  0.33593474  0.40089458  0.63261376    -0.16500
C495        C  0.39692611  0.37580678  0.66686606    -0.16300
C496        C  0.36967299  0.33977213  0.60780465    -0.16600
C497        C  0.36295346  0.42765827  0.61335177    -0.16600
C498        C  0.42366032  0.39424863  0.63941782    -0.16200
C499        C  0.38783067  0.36564813  0.57950019    -0.16500
C500        C  0.35367541  0.29659396  0.60259570     0.03900
C501        C  0.31235383  0.29459249  0.60030931    -0.12300
C502        C  0.29165016  0.25833555  0.59694333     0.01400
C503        C  0.31222487  0.22222339  0.59960765    -0.10800
C504        C  0.35383509  0.22079085  0.60047585     0.03900
C505        C  0.37501370  0.25872970  0.60464193    -0.10200
H506        H  0.29653708  0.32225029  0.59680471     0.09500
H507        H  0.29559539  0.19420654  0.59748846     0.07000
H508        H  0.40687007  0.25865990  0.61022131     0.06800
C509        C  0.39968863  0.11116443  0.60169993     0.46200
H510        H  0.41826923  0.09080418  0.58285662    -0.02800
C511        C  0.35629196  0.15789706  0.64670208     0.46300
H512        H  0.33808756  0.17776752  0.66648096    -0.02800
C513        C  0.38792760  0.15097285  0.58000198    -0.16500
C514        C  0.35935336  0.09106673  0.61581510    -0.16100
C515        C  0.42136267  0.12476204  0.64051872    -0.16600
C516        C  0.36954601  0.17841259  0.60682256    -0.16600
C517        C  0.33351423  0.11930693  0.63413086    -0.16200
C518        C  0.39473910  0.14407401  0.66767443    -0.16500
C519        C  0.21454119  0.11154553  0.64999938     0.03900
C520        C  0.21595035  0.11019097  0.69158561    -0.12300
C521        C  0.25207414  0.10731726  0.71213474     0.01400
C522        C  0.28837224  0.11087509  0.69146758    -0.10800
C523        C  0.29036661  0.11389112  0.65019831     0.03900
C524        C  0.25249454  0.11611925  0.62890769    -0.10200
H525        H  0.18791233  0.10787740  0.70816975     0.09500
H526        H  0.31605650  0.10707120  0.70721827     0.07000
H527        H  0.25243751  0.12207574  0.59712848     0.06800
C528        C  0.04198873  0.10976095  0.85291039     0.03900
C529        C  0.00406697  0.13045365  0.85546970    -0.12300
C530        C  0.46614798  0.10843990  0.85259827     0.01400
C531        C  0.46792845  0.06686193  0.85128127    -0.10800
C532        C  0.00427888  0.04691153  0.84804653     0.03900
C533        C  0.04032156  0.06828664  0.85153053    -0.10200
H534        H  0.00418726  0.16243590  0.86090795     0.09500
H535        H  0.44015812  0.04987202  0.84897798     0.07000
H536        H  0.06828812  0.05262646  0.84851821     0.06800
O537        O  0.03844011  0.00258968  0.80679179    -0.72200
O538        O  0.03573352  0.52206100  0.69035733    -0.73200
O539        O  0.03182813  0.06898048  0.76403271    -0.61800
O540        O  0.04192315  0.45528751  0.73572179    -0.70200
O541        O  0.47614361  0.45128305  0.73465049    -0.69800
O542        O  0.46605143  0.06500756  0.76286364    -0.61000
O543        O  0.46955620  0.51762200  0.69189797    -0.73500
O544        O  0.47227043  0.99827378  0.80836846    -0.72300
Cu545      Cu  0.04029087  0.01264363  0.74899076     1.04600
Cu546      Cu  0.46768638  0.00763097  0.74968804     1.04300
C547        C  0.00512967  0.01011446  0.82409711     0.94000
C548        C  0.00289916  0.51023611  0.67458065     0.93100
C549        C  0.99859464  0.08146972  0.75154687     0.85300
C550        C  0.00940983  0.43878437  0.74705060     0.91600
C551        C  0.10768500  0.16071134  0.71362458     0.03900
C552        C  0.10560857  0.20203245  0.71570032    -0.12300
C553        C  0.10174773  0.22264968  0.75195565     0.01400
C554        C  0.10391858  0.20201070  0.78806399    -0.10800
C555        C  0.10498323  0.16040219  0.78940542     0.03900
C556        C  0.10947051  0.13930582  0.75144896    -0.10200
H557        H  0.10262607  0.21793800  0.68807287     0.09500
H558        H  0.10141881  0.21857711  0.81609292     0.07000
H559        H  0.11509293  0.10745675  0.75148245     0.06800
C560        C  0.16031550  0.47341712  0.89083407     0.03900
C561        C  0.13808379  0.01049273  0.88547962    -0.12300
C562        C  0.15622573  0.04932373  0.89641236     0.01400
C563        C  0.19367404  0.04820777  0.91306575    -0.10800
C564        C  0.21640618  0.01387134  0.91201659     0.03900
C565        C  0.19877431  0.47731653  0.90396420    -0.10200
H566        H  0.10884993  0.00874822  0.87231628     0.09500
H567        H  0.20700265  0.07596028  0.92396003     0.07000
H568        H  0.21417783  0.45070984  0.91218451     0.06800
C569        C  0.10641922  0.11437840  0.89891896     0.46200
H570        H  0.08762412  0.09576932  0.91927772    -0.02800
C571        C  0.15127768  0.15783624  0.85215383     0.46300
H572        H  0.17099772  0.17605222  0.83225065    -0.02800
C573        C  0.14523723  0.09269355  0.88515488    -0.16500
C574        C  0.08460236  0.12620192  0.85916484    -0.16300
C575        C  0.12057023  0.15472136  0.91906872    -0.16600
C576        C  0.17229380  0.11936946  0.86581041    -0.16600
C577        C  0.11136314  0.14464331  0.83173414    -0.16200
C578        C  0.13880504  0.18057154  0.89079462    -0.16500
C579        C  0.29175619  0.10552011  0.85853416     0.03900
C580        C  0.28837226  0.06723834  0.84399496    -0.12300
C581        C  0.25195419  0.04917047  0.83661730     0.01400
C582        C  0.21739819  0.07145469  0.83672518    -0.10800
C583        C  0.21586835  0.10872526  0.85425755     0.03900
C584        C  0.25439823  0.12718656  0.86530221    -0.10200
H585        H  0.31525069  0.05199945  0.83511836     0.09500
H586        H  0.18973021  0.05779309  0.82625403     0.07000
H587        H  0.25569748  0.15612367  0.87968629     0.06800
C588        C  0.35733850  0.15648676  0.85281484     0.46200
H589        H  0.33832420  0.17546733  0.83380815    -0.02800
C590        C  0.40178233  0.11210247  0.89725332     0.46300
H591        H  0.42085298  0.09308308  0.91630820    -0.02800
C592        C  0.39697241  0.14221192  0.83104633    -0.16500
C593        C  0.37164160  0.17831623  0.89239890    -0.16300
C594        C  0.33559855  0.11684081  0.86710876    -0.16600
C595        C  0.42325627  0.12411324  0.85828059    -0.16600
C596        C  0.38972993  0.15110368  0.91870587    -0.16200
C597        C  0.36285264  0.09057055  0.88519961    -0.16500
C598        C  0.35909179  0.29815182  0.90030494     0.03900
C599        C  0.34164054  0.29672631  0.93763323    -0.12300
C600        C  0.34151713  0.26222087  0.95996851     0.01400
C601        C  0.34879211  0.22575941  0.94193250    -0.10800
C602        C  0.36321977  0.22224468  0.90361456     0.03900
C603        C  0.37002003  0.25955336  0.88186770    -0.10200
H604        H  0.33119189  0.32441973  0.95127177     0.09500
H605        H  0.33991942  0.19893222  0.95725426     0.07000
H606        H  0.38433727  0.25818987  0.85288193     0.06800
C607        C  0.40331406  0.40773553  0.89435616     0.46200
H608        H  0.42357425  0.42666429  0.91293760    -0.02800
C609        C  0.35675438  0.36260417  0.85097106     0.46300
H610        H  0.33695053  0.34276997  0.83277761    -0.02800
C611        C  0.36340453  0.42928693  0.88256944    -0.16500
C612        C  0.42353958  0.39361739  0.85405094    -0.16300
C613        C  0.38979051  0.36892931  0.91608663    -0.16600
C614        C  0.33608015  0.40238839  0.86418401    -0.16600
C615        C  0.39533961  0.37531006  0.82819039    -0.16200
C616        C  0.37053730  0.34171477  0.88948501    -0.16500
C617        C  0.29364412  0.40858003  0.84855710     0.03900
C618        C  0.25576040  0.40424552  0.86980900    -0.12300
C619        C  0.21785090  0.40637911  0.84859219     0.01400
C620        C  0.21973167  0.40906865  0.80730935    -0.10800
C621        C  0.25594860  0.41241420  0.78651191     0.03900
C622        C  0.29211759  0.40956267  0.80696324    -0.10200
H623        H  0.25590329  0.39851678  0.90163054     0.09500
H624        H  0.19202685  0.41284923  0.79164249     0.07000
H625        H  0.32010457  0.41169353  0.79027106     0.06800
C626        C  0.10850746  0.40920550  0.89691863     0.46200
H627        H  0.08988590  0.42955278  0.91573558    -0.02800
C628        C  0.15196964  0.36246356  0.85200902     0.46300
H629        H  0.17020805  0.34257648  0.83228090    -0.02800
C630        C  0.08689910  0.39561242  0.85804034    -0.16500
C631        C  0.14888159  0.42931073  0.88291648    -0.16300
C632        C  0.12025871  0.36939025  0.91862470    -0.16600
C633        C  0.11359951  0.37636722  0.83091285    -0.16600
C634        C  0.17473779  0.40103456  0.86467995    -0.16200
C635        C  0.13864464  0.34192951  0.89184714    -0.16500
C636        C  0.46625520  0.41069226  0.64565769     0.03900
C637        C  0.00420255  0.39004125  0.64315700    -0.12300
C638        C  0.04208643  0.41212381  0.64597778     0.01400
C639        C  0.04023612  0.45369601  0.64721999    -0.10800
C640        C  0.00384795  0.47357619  0.65046363     0.03900
C641        C  0.46785782  0.45215251  0.64695359    -0.10200
H642        H  0.00412600  0.35804808  0.63777691     0.09500
H643        H  0.06797916  0.47073974  0.64949460     0.07000
H644        H  0.43986381  0.46777021  0.64994306     0.06800
C645        C  0.15081112  0.36397694  0.64559351     0.46200
H646        H  0.16984630  0.34501428  0.66459521    -0.02800
C647        C  0.10631816  0.40832455  0.60115297     0.46300
H648        H  0.08722971  0.42732371  0.58209582    -0.02800
C649        C  0.11136094  0.37849659  0.66746919    -0.16500
C650        C  0.17261135  0.40345178  0.63101318    -0.16300
C651        C  0.13624004  0.34203476  0.60620610    -0.16600
C652        C  0.08499084  0.39652125  0.64025888    -0.16600
C653        C  0.14535986  0.42976193  0.61297231    -0.16200
C654        C  0.11818001  0.36920183  0.57984212    -0.16500
C655        C  0.14471199  0.29812966  0.59509648     0.03900
C656        C  0.13777814  0.26082232  0.61679392    -0.12300
C657        C  0.14897932  0.22223896  0.59846958     0.01400
C658        C  0.16667641  0.22370876  0.56126077    -0.10800
C659        C  0.16684114  0.25823227  0.53893970     0.03900
C660        C  0.15943084  0.29466745  0.55692369    -0.10200
H661        H  0.12317113  0.26221658  0.64558743     0.09500
H662        H  0.17723967  0.19603415  0.54767067     0.07000
H663        H  0.16832041  0.32152759  0.54166575     0.06800
C664        C  0.10010681  0.36975765  0.71125943     0.03900
C665        C  0.06197944  0.35489205  0.71441194    -0.12300
C666        C  0.04373395  0.34751758  0.75069853     0.01400
C667        C  0.06578018  0.34773142  0.78540209    -0.10800
C668        C  0.10306002  0.36522819  0.78716699     0.03900
C669        C  0.12161599  0.37649863  0.74871156    -0.10200
H670        H  0.04691508  0.34601091  0.68742430     0.09500
H671        H  0.05195733  0.33722152  0.81297218     0.07000
H672        H  0.15048481  0.39098918  0.74748821     0.06800
C673        C  0.46771213  0.40147060  0.84272932     0.03900
C674        C  0.00470824  0.39600354  0.86503967    -0.12300
C675        C  0.04360056  0.40705496  0.84708295     0.01400
C676        C  0.04263644  0.42402120  0.80979044    -0.10800
C677        C  0.00843726  0.42289736  0.78688550     0.03900
C678        C  0.47179657  0.41465125  0.80430973    -0.10200
H679        H  0.00287040  0.38265469  0.89420426     0.09500
H680        H  0.07042653  0.43509555  0.79666501     0.07000
H681        H  0.44525199  0.42284729  0.78882160     0.06800
C682        C  0.35694169  0.47178881  0.89911197     0.03900
C683        C  0.35528822  0.47327549  0.94057664    -0.12300
C684        C  0.35246224  0.00928567  0.96211468     0.01400
C685        C  0.35616305  0.04566899  0.94230955    -0.10800
C686        C  0.35724038  0.04761562  0.90074505     0.03900
C687        C  0.35988624  0.00976067  0.87859013    -0.10200
H688        H  0.35176399  0.44526069  0.95607992     0.09500
H689        H  0.35429377  0.07340284  0.95942878     0.07000
H690        H  0.36541751  0.00971658  0.84662222     0.06800
C691        C  0.04048495  0.11875299  0.65588941     0.03900
C692        C  0.03633427  0.10560369  0.69432778    -0.12300
C693        C  0.99965861  0.09729922  0.71168094     0.01400
C694        C  0.46550255  0.09616499  0.68871705    -0.10800
C695        C  0.46460904  0.11317148  0.65144398     0.03900
C696        C  0.00351613  0.12422083  0.63353353    -0.10200
H697        H  0.06284593  0.09746210  0.70988704     0.09500
H698        H  0.43767753  0.08513813  0.70181244     0.07000
H699        H  0.00536279  0.13758944  0.60437900     0.06800
C700        C  0.15146407  0.15760792  0.64759122     0.46200
H701        H  0.17131412  0.17738676  0.66579314    -0.02800
C702        C  0.10483923  0.11261181  0.60416458     0.46300
H703        H  0.08456045  0.09373032  0.58555696    -0.02800
C704        C  0.13755392  0.17864235  0.60918280    -0.16500
C705        C  0.17213591  0.11786301  0.63427644    -0.16300
C706        C  0.11293314  0.14480232  0.67041792    -0.16600
C707        C  0.11832387  0.15150119  0.58251240    -0.16600
C708        C  0.14476555  0.09102399  0.61587057    -0.16200
C709        C  0.08467186  0.12658046  0.64455889    -0.16500
C710        C  0.39570272  0.35418439  0.53536753     0.03900
C711        C  0.39027099  0.37635293  0.99827259    -0.12300
C712        C  0.40120399  0.35815442  0.95944863     0.01400
C713        C  0.41805371  0.32080558  0.96057957    -0.10800
C714        C  0.41696726  0.29808484  0.49490432     0.03900
C715        C  0.40884433  0.31571822  0.53145434    -0.10200
H716        H  0.37707705  0.40559047  0.99998944     0.09500
H717        H  0.42903761  0.30750069  0.93284066     0.07000
H718        H  0.41707891  0.30032611  0.55804028     0.06800
O719        O  0.26484547  0.22940699  0.94003808    -0.72200
O720        O  0.24565235  0.22503174  0.55691674    -0.73200
O721        O  0.19783494  0.22475761  0.48679254    -0.61800
O722        O  0.31187093  0.22993336  0.01236725    -0.70200
O723        O  0.31081101  0.29582140  0.01229505    -0.69800
O724        O  0.19674290  0.29066612  0.48682208    -0.61000
O725        O  0.24365714  0.29122894  0.55914931    -0.73500
O726        O  0.26277346  0.29560110  0.94224722    -0.72300
Cu727      Cu  0.25520996  0.22394568  0.99874415     1.04600
Cu728      Cu  0.25335854  0.29668375  0.00042803     1.04300
C729        C  0.25383721  0.26254322  0.92500071     0.94000
C730        C  0.25455075  0.25806599  0.57421820     0.93100
C731        C  0.18281588  0.25752120  0.49892083     0.85300
C732        C  0.32575924  0.26303043  0.00011554     0.91600
O733        O  0.28488423  0.06938040  0.76012724    -0.72200
O734        O  0.28923880  0.45255696  0.74064497    -0.73200
O735        O  0.28952239  0.52290843  0.69306485    -0.61800
O736        O  0.28436954  0.99684949  0.80696629    -0.70200
O737        O  0.21847232  0.99690062  0.80580761    -0.69800
O738        O  0.22360522  0.52286490  0.69187494    -0.61000
O739        O  0.22303604  0.45031001  0.73857745    -0.73500
O740        O  0.21867778  0.06715868  0.75799013    -0.72300
Cu741      Cu  0.29034646  0.01069373  0.75036301     1.04600
Cu742      Cu  0.21758841  0.00901692  0.74842434     1.04300
C743        C  0.25173928  0.08445479  0.74916024     0.94000
C744        C  0.25620167  0.43522774  0.74947329     0.93100
C745        C  0.25679196  0.51081820  0.67797195     0.85300
C746        C  0.25122797  0.00905105  0.82082784     0.91600
O747        O  0.44469602  0.24962738  0.77955775    -0.72200
O748        O  0.06151251  0.26886573  0.78477531    -0.73200
O749        O  0.99130520  0.31676491  0.78387561    -0.61800
O750        O  0.51692687  0.20272660  0.78022080    -0.70200
O751        O  0.51744495  0.20323333  0.71431507    -0.69800
O752        O  0.99198426  0.31732776  0.71795196    -0.61000
O753        O  0.06422015  0.27047252  0.71858327    -0.73500
O754        O  0.44733406  0.25142420  0.71336753    -0.72300
Cu755      Cu  0.00330511  0.25940388  0.78543517     1.04600
Cu756      Cu  0.00557028  0.26068493  0.71269981     1.04300
C757        C  0.42986712  0.26049283  0.74628630     0.94000
C758        C  0.07904876  0.25976438  0.75191444     0.93100
C759        C  0.00373214  0.33152752  0.75111473     0.85300
C760        C  0.50499743  0.18855314  0.74712181     0.91600
C761        C  0.40539760  0.65528707  0.21134814     0.03900
C762        C  0.44276944  0.67260063  0.21302620    -0.12300
C763        C  0.46486963  0.67277174  0.24768502     0.01400
C764        C  0.44660519  0.66552371  0.28402126    -0.10800
C765        C  0.40834247  0.65090990  0.28724839     0.03900
C766        C  0.38678448  0.64423441  0.24981880    -0.10200
H767        H  0.45660221  0.68299997  0.18541863     0.09500
H768        H  0.46174685  0.67438607  0.31096312     0.07000
H769        H  0.35779322  0.62994161  0.25103326     0.06800
C770        C  0.21643541  0.91468558  0.13959870     0.03900
C771        C  0.25379630  0.89305566  0.13275236    -0.12300
C772        C  0.29230496  0.91141074  0.14407762     0.01400
C773        C  0.29071645  0.94855597  0.16184534    -0.10800
C774        C  0.25615446  0.97083256  0.16195830     0.03900
C775        C  0.21976633  0.95283621  0.15439503    -0.10200
H776        H  0.25247603  0.86426257  0.11811371     0.09500
H777        H  0.31835772  0.96216230  0.17246451     0.07000
H778        H  0.19285681  0.96803339  0.16325131     0.06800
C779        C  0.15442071  0.79958554  0.39833374     0.03900
C780        C  0.19601145  0.79826517  0.39967787    -0.12300
C781        C  0.21667457  0.76219161  0.40235473     0.01400
C782        C  0.19609325  0.72585728  0.39879024    -0.10800
C783        C  0.15479058  0.72376354  0.39609229     0.03900
C784        C  0.13339629  0.76158897  0.39388388    -0.10200
H785        H  0.21252735  0.82633307  0.40201744     0.09500
H786        H  0.21197455  0.69821600  0.40235953     0.07000
H787        H  0.10159346  0.76157720  0.38801541     0.06800
C788        C  0.11263803  0.66622688  0.46317166     0.03900
C789        C  0.11802394  0.64411881  0.50030348    -0.12300
C790        C  0.10706744  0.66236136  0.03910253     0.01400
C791        C  0.09028950  0.69975748  0.03788607    -0.10800
C792        C  0.09134540  0.72239435  0.50349047     0.03900
C793        C  0.09943886  0.70466904  0.46698825    -0.10200
H794        H  0.13119014  0.61485989  0.49860862     0.09500
H795        H  0.07926478  0.71310871  0.06558232     0.07000
H796        H  0.09116985  0.71996481  0.44035135     0.06800
C797        C  0.15117699  0.54854785  0.09927035     0.03900
C798        C  0.15274505  0.54714851  0.05781750    -0.12300
C799        C  0.15564467  0.51120711  0.03620638     0.01400
C800        C  0.15197861  0.97476616  0.05592513    -0.10800
C801        C  0.15096254  0.97273120  0.09748578     0.03900
C802        C  0.14832412  0.51053659  0.11972408    -0.10200
H803        H  0.15624607  0.57521004  0.04237843     0.09500
H804        H  0.15386506  0.94706794  0.03874452     0.07000
H805        H  0.14285645  0.51051469  0.15170308     0.06800
C806        C  0.40341521  0.85996167  0.20916346     0.03900
C807        C  0.40486393  0.81836841  0.21038477    -0.12300
C808        C  0.40719076  0.79763708  0.24643385     0.01400
C809        C  0.40325207  0.81812949  0.28278175    -0.10800
C810        C  0.40071309  0.85942708  0.28496817     0.03900
C811        C  0.39873160  0.88090170  0.24718817    -0.10200
H812        H  0.40746717  0.80191007  0.18230391     0.09500
H813        H  0.40641499  0.80214334  0.31041489     0.07000
H814        H  0.39285001  0.91270423  0.24725115     0.06800
C815        C  0.10384741  0.86321642  0.46121757     0.03900
C816        C  0.06238260  0.86201762  0.46287579    -0.12300
C817        C  0.04097546  0.85877047  0.49890324     0.01400
C818        C  0.06089870  0.86211541  0.03524569    -0.10800
C819        C  0.10248158  0.86334089  0.03701936     0.03900
C820        C  0.12452833  0.86594257  0.49910430    -0.10200
H821        H  0.04671927  0.85899133  0.43490429     0.09500
H822        H  0.04387859  0.85998192  0.06302147     0.07000
H823        H  0.15652536  0.87132232  0.49895546     0.06800
O824        O  0.06291727  0.77449130  0.47086718    -0.72200
O825        O  0.44904051  0.74665196  0.46153851    -0.73200
O826        O  0.99657210  0.81760744  0.46480129    -0.61800
O827        O  0.51572754  0.70108296  0.46723233    -0.70200
O828        O  0.51169908  0.70274768  0.03340106    -0.69800
O829        O  0.99235318  0.81921795  0.03096987    -0.61000
O830        O  0.44525455  0.74579313  0.02732358    -0.73500
O831        O  0.05907696  0.77379495  0.03666053    -0.72300
Cu832      Cu  0.00644995  0.75974523  0.46278749     1.04600
Cu833      Cu  0.00170601  0.76059898  0.03539837     1.04300
C834        C  0.07548454  0.76225613  0.50417823     0.94000
C835        C  0.43270024  0.75816701  0.99406909     0.93100
C836        C  0.00415752  0.83490731  0.49809545     0.85300
C837        C  0.50398487  0.68543020  0.00015400     0.91600
C838        C  0.34789918  0.54699323  0.10785771     0.03900
C839        C  0.37008303  0.50989046  0.11319870    -0.12300
C840        C  0.35190751  0.97108064  0.10223780     0.01400
C841        C  0.31443707  0.97227759  0.08560935    -0.10800
C842        C  0.29176887  0.50666928  0.08662543     0.03900
C843        C  0.30947057  0.54318026  0.09465957    -0.10200
H844        H  0.39932209  0.51161608  0.12635851     0.09500
H845        H  0.30108114  0.94456711  0.07465677     0.07000
H846        H  0.29415520  0.56982841  0.08639404     0.06800
O847        O  0.19497948  0.97893777  0.98758473    -0.72200
O848        O  0.31143854  0.97558002  0.50702995    -0.73200
O849        O  0.24031232  0.97341417  0.05453234    -0.61800
O850        O  0.26846042  0.98146756  0.44065789    -0.70200
O851        O  0.26788991  0.54728897  0.44394551    -0.69800
O852        O  0.23987203  0.53923931  0.05786352    -0.61000
O853        O  0.31336686  0.54174690  0.51085877    -0.73500
O854        O  0.19684956  0.54511166  0.99159449    -0.72300
Cu855      Cu  0.25354601  0.97403477  0.49711768     1.04600
Cu856      Cu  0.25475242  0.54667754  0.50139396     1.04300
C857        C  0.17942579  0.51191299  0.99932015     0.94000
C858        C  0.32885988  0.50872968  0.49913871     0.93100
C859        C  0.25193671  0.50597798  0.07071280     0.85300
C860        C  0.25628598  0.51468505  0.42781768     0.91600
C861        C  0.40550703  0.65691849  0.46152948     0.03900
C862        C  0.44709480  0.65821214  0.46321326    -0.12300
C863        C  0.46710722  0.66161606  0.99949986     0.01400
C864        C  0.44578068  0.65839955  0.03560102    -0.10800
C865        C  0.40430006  0.65713197  0.03736076     0.03900
C866        C  0.38355097  0.65431196  0.99950621    -0.10200
H867        H  0.46404787  0.66034706  0.43539989     0.09500
H868        H  0.46151828  0.66145727  0.06353063     0.07000
H869        H  0.35156209  0.64889275  0.99972425     0.06800
C870        C  0.35707060  0.86252343  0.14639933     0.46200
H871        H  0.33738389  0.84428754  0.16631568    -0.02800
C872        C  0.40184935  0.90604538  0.09964072     0.46300
H873        H  0.42062523  0.92468739  0.07929564    -0.02800
C874        C  0.33593431  0.90089471  0.13261335    -0.16500
C875        C  0.39692560  0.87580656  0.16686542    -0.16300
C876        C  0.36967223  0.83977229  0.10780389    -0.16600
C877        C  0.36295319  0.92765840  0.11335156    -0.16600
C878        C  0.42365985  0.89424845  0.13941729    -0.16200
C879        C  0.38783001  0.86564837  0.07949959    -0.16500
C880        C  0.35367457  0.79659412  0.10259477     0.03900
C881        C  0.31235298  0.79459271  0.10030822    -0.12300
C882        C  0.29164919  0.75833578  0.09694271     0.01400
C883        C  0.31222383  0.72222361  0.09960737    -0.10800
C884        C  0.35383406  0.72079095  0.10047548     0.03900
C885        C  0.37501271  0.75872981  0.10464114    -0.10200
H886        H  0.29653632  0.82225056  0.09680328     0.09500
H887        H  0.29559421  0.69420669  0.09748851     0.07000
H888        H  0.40686941  0.75865995  0.11022051     0.06800
C889        C  0.39968760  0.61116453  0.10169989     0.46200
H890        H  0.41826839  0.59080415  0.08285652    -0.02800
C891        C  0.35629089  0.65789711  0.14670183     0.46300
H892        H  0.33808618  0.67776786  0.16648092    -0.02800
C893        C  0.38792649  0.65097286  0.08000182    -0.16500
C894        C  0.35935247  0.59106668  0.11581510    -0.16100
C895        C  0.42136159  0.62476216  0.14051867    -0.16600
C896        C  0.36954489  0.67841267  0.10682233    -0.16600
C897        C  0.33351321  0.61930694  0.13413073    -0.16200
C898        C  0.39473798  0.64407419  0.16767430    -0.16500
C899        C  0.21454025  0.61154591  0.14999947     0.03900
C900        C  0.21594955  0.61019143  0.19158564    -0.12300
C901        C  0.25207325  0.60731739  0.21213478     0.01400
C902        C  0.28837130  0.61087478  0.19146748    -0.10800
C903        C  0.29036567  0.61389104  0.15019825     0.03900
C904        C  0.25249360  0.61611943  0.12890768    -0.10200
H905        H  0.18791108  0.60787805  0.20817009     0.09500
H906        H  0.31605596  0.60707047  0.20721832     0.07000
H907        H  0.25243661  0.62207586  0.09712845     0.06800
C908        C  0.04198763  0.60976075  0.35291074     0.03900
C909        C  0.00406587  0.63045365  0.35546961    -0.12300
C910        C  0.46614687  0.60843985  0.35259822     0.01400
C911        C  0.46792730  0.56686188  0.35128155    -0.10800
C912        C  0.00427770  0.54691140  0.34804740     0.03900
C913        C  0.04032009  0.56828660  0.35153177    -0.10200
H914        H  0.00418623  0.66243566  0.36090748     0.09500
H915        H  0.44015696  0.54987196  0.34897807     0.07000
H916        H  0.06828801  0.55262541  0.34852010     0.06800
O917        O  0.03843940  0.50259015  0.30679261    -0.72200
O918        O  0.03573339  0.02206083  0.19035660    -0.73200
O919        O  0.03182697  0.56898097  0.26403325    -0.61800
O920        O  0.04192246  0.95528705  0.23572069    -0.70200
O921        O  0.47614308  0.95128314  0.23464988    -0.69800
O922        O  0.46605033  0.56500728  0.26286381    -0.61000
O923        O  0.46955605  0.01762222  0.19189749    -0.73500
O924        O  0.47226981  0.49827379  0.30836878    -0.72300
Cu925      Cu  0.04029060  0.51264415  0.24899160     1.04600
Cu926      Cu  0.46768615  0.50763081  0.24968839     1.04300
C927        C  0.00512877  0.51011457  0.32409773     0.94000
C928        C  0.00289889  0.01023612  0.17458004     0.93100
C929        C  0.99859337  0.58146966  0.25154702     0.85300
C930        C  0.00940913  0.93878414  0.24704973     0.91600
C931        C  0.10768395  0.66071145  0.21362479     0.03900
C932        C  0.10560829  0.70203267  0.21570059    -0.12300
C933        C  0.10174729  0.72264978  0.25195595     0.01400
C934        C  0.10391779  0.70201077  0.28806430    -0.10800
C935        C  0.10498207  0.66040220  0.28940562     0.03900
C936        C  0.10946911  0.63930608  0.25144914    -0.10200
H937        H  0.10262631  0.71793819  0.18807343     0.09500
H938        H  0.10141803  0.71857702  0.31609304     0.07000
H939        H  0.11509148  0.60745582  0.25148261     0.06800
C940        C  0.16031501  0.97341691  0.39083405     0.03900
C941        C  0.13808366  0.51049272  0.38547966    -0.12300
C942        C  0.15622518  0.54932384  0.39641244     0.01400
C943        C  0.19367353  0.54820831  0.41306597    -0.10800
C944        C  0.21640598  0.51387200  0.41201670     0.03900
C945        C  0.19877382  0.97731607  0.40396425    -0.10200
H946        H  0.10884957  0.50874796  0.37231617     0.09500
H947        H  0.20700160  0.57596041  0.42396013     0.07000
H948        H  0.21417717  0.95070914  0.41218466     0.06800
C949        C  0.10641813  0.61437817  0.39891918     0.46200
H950        H  0.08762344  0.59576931  0.41927762    -0.02800
C951        C  0.15127647  0.65783638  0.35215393     0.46300
H952        H  0.17099606  0.67605216  0.33225113    -0.02800
C953        C  0.14523635  0.59269360  0.38515497    -0.16500
C954        C  0.08460126  0.62620174  0.35916500    -0.16300
C955        C  0.12056905  0.65472125  0.41906890    -0.16600
C956        C  0.17229271  0.61936966  0.36581054    -0.16600
C957        C  0.11136191  0.64464325  0.33173433    -0.16200
C958        C  0.13880367  0.68057146  0.39079483    -0.16500
C959        C  0.29175511  0.60552035  0.35853442     0.03900
C960        C  0.28837102  0.56723855  0.34399552    -0.12300
C961        C  0.25195302  0.54917081  0.33661748     0.01400
C962        C  0.21739713  0.57145518  0.33672510    -0.10800
C963        C  0.21586728  0.60872565  0.35425754     0.03900
C964        C  0.25439717  0.62718696  0.36530223    -0.10200
H965        H  0.31524983  0.55199920  0.33511919     0.09500
H966        H  0.18972895  0.55779346  0.32625377     0.07000
H967        H  0.25569643  0.65612411  0.37968613     0.06800
C968        C  0.35733738  0.65648704  0.35281472     0.46200
H969        H  0.33832353  0.67546712  0.33380851    -0.02800
C970        C  0.40178148  0.61210258  0.39725332     0.46300
H971        H  0.42085169  0.59308377  0.41630773    -0.02800
C972        C  0.39697132  0.64221193  0.33104620    -0.16500
C973        C  0.37164076  0.67831648  0.39239880    -0.16300
C974        C  0.33559753  0.61684100  0.36710890    -0.16600
C975        C  0.42325517  0.62411329  0.35828042    -0.16600
C976        C  0.38972905  0.65110395  0.41870572    -0.16200
C977        C  0.36285167  0.59057072  0.38519960    -0.16500
C978        C  0.35909119  0.79815209  0.40030451     0.03900
C979        C  0.34163977  0.79672678  0.43763264    -0.12300
C980        C  0.34151630  0.76222151  0.45996816     0.01400
C981        C  0.34879154  0.72575995  0.44193240    -0.10800
C982        C  0.36321906  0.72224501  0.40361445     0.03900
C983        C  0.37001953  0.75955355  0.38186708    -0.10200
H984        H  0.33119096  0.82442038  0.45127104     0.09500
H985        H  0.33991900  0.69893298  0.45725432     0.07000
H986        H  0.38433584  0.75818993  0.35288306     0.06800
C987        C  0.40331357  0.90773548  0.39435542     0.46200
H988        H  0.42357400  0.92666443  0.41293702    -0.02800
C989        C  0.35675387  0.86260418  0.35097045     0.46300
H990        H  0.33694997  0.84276986  0.33277699    -0.02800
C991        C  0.36340406  0.92928689  0.38256877    -0.16500
C992        C  0.42353909  0.89361732  0.35405026    -0.16300
C993        C  0.38979005  0.86892942  0.41608600    -0.16600
C994        C  0.33607958  0.90238834  0.36418339    -0.16600
C995        C  0.39533910  0.87531000  0.32818973    -0.16200
C996        C  0.37053680  0.84171488  0.38948440    -0.16500
C997        C  0.29364343  0.90857983  0.34855657     0.03900
C998        C  0.25575971  0.90424517  0.36980878    -0.12300
C999        C  0.21785015  0.90637888  0.34859185     0.01400
C1000       C  0.21973084  0.90906855  0.30730906    -0.10800
C1001       C  0.25594775  0.91241400  0.28651149     0.03900
C1002       C  0.29211670  0.90956233  0.30696279    -0.10200
H1003       H  0.25590266  0.89851648  0.40162920     0.09500
H1004       H  0.19202597  0.91284919  0.29164225     0.07000
H1005       H  0.32010404  0.91169307  0.29027026     0.06800
C1006       C  0.10850668  0.90920531  0.39691821     0.46200
H1007       H  0.08988504  0.92955262  0.41573513    -0.02800
C1008       C  0.15196888  0.86246326  0.35200876     0.46300
H1009       H  0.17020734  0.84257608  0.33228072    -0.02800
C1010       C  0.08689848  0.89561233  0.35803976    -0.16500
C1011       C  0.14888092  0.92931051  0.38291627    -0.16300
C1012       C  0.12025776  0.86939004  0.41862435    -0.16600
C1013       C  0.11359895  0.87636705  0.33091240    -0.16600
C1014       C  0.17473709  0.90103426  0.36467975    -0.16200
C1015       C  0.13864360  0.84192924  0.39184684    -0.16500
C1016       C  0.46625471  0.91069214  0.14565721     0.03900
C1017       C  0.00420210  0.89004123  0.14315659    -0.12300
C1018       C  0.04208592  0.91212382  0.14597720     0.01400
C1019       C  0.04023560  0.95369606  0.14721907    -0.10800
C1020       C  0.00384743  0.97357615  0.15046303     0.03900
C1021       C  0.46785731  0.95215242  0.14695329    -0.10200
H1022       H  0.00412561  0.85804778  0.13777659     0.09500
H1023       H  0.06797842  0.97073969  0.14949328     0.07000
H1024       H  0.43986329  0.96777001  0.14994315     0.06800
C1025       C  0.15081047  0.86397696  0.14559293     0.46200
H1026       H  0.16984582  0.84501398  0.16459490    -0.02800
C1027       C  0.10631773  0.90832459  0.10115249     0.46300
H1028       H  0.08722905  0.92732407  0.08209510    -0.02800
C1029       C  0.11136039  0.87849665  0.16746870    -0.16500
C1030       C  0.17261085  0.90345166  0.13101260    -0.16300
C1031       C  0.13623944  0.84203474  0.10620559    -0.16600
C1032       C  0.08499032  0.89652136  0.14025835    -0.16600
C1033       C  0.14535941  0.92976189  0.11297177    -0.16200
C1034       C  0.11817947  0.86920188  0.07984161    -0.16500
C1035       C  0.14471113  0.79812956  0.09509601     0.03900
C1036       C  0.13777711  0.76082228  0.11679365    -0.12300
C1037       C  0.14897822  0.72223887  0.09846937     0.01400
C1038       C  0.16667537  0.72370826  0.06126044    -0.10800
C1039       C  0.16684002  0.75823183  0.03893929     0.03900
C1040       C  0.15942976  0.79466705  0.05692316    -0.10200
H1041       H  0.12317036  0.76221669  0.14558667     0.09500
H1042       H  0.17723826  0.69603446  0.04767090     0.07000
H1043       H  0.16831937  0.82152728  0.04166499     0.06800
C1044       C  0.10010622  0.86975769  0.21125893     0.03900
C1045       C  0.06197897  0.85489202  0.21441163    -0.12300
C1046       C  0.04373345  0.84751740  0.25069811     0.01400
C1047       C  0.06577983  0.84773113  0.28540155    -0.10800
C1048       C  0.10305956  0.86522797  0.28716651     0.03900
C1049       C  0.12161546  0.87649855  0.24871107    -0.10200
H1050       H  0.04691407  0.84601067  0.18742316     0.09500
H1051       H  0.05195676  0.83722102  0.31297208     0.07000
H1052       H  0.15048436  0.89098913  0.24748771     0.06800
C1053       C  0.46771158  0.90147054  0.34272858     0.03900
C1054       C  0.00470765  0.89600342  0.36503885    -0.12300
C1055       C  0.04359996  0.90705479  0.34708222     0.01400
C1056       C  0.04263604  0.92402090  0.30978944    -0.10800
C1057       C  0.00843663  0.92289718  0.28688470     0.03900
C1058       C  0.47179617  0.91465134  0.30430912    -0.10200
H1059       H  0.00286980  0.88265437  0.39420369     0.09500
H1060       H  0.07042521  0.93509469  0.29666438     0.07000
H1061       H  0.44525071  0.92284772  0.28882060     0.06800
C1062       C  0.35694138  0.97178868  0.39911143     0.03900
C1063       C  0.35528745  0.97327515  0.44057606    -0.12300
C1064       C  0.35246214  0.50928621  0.46211504     0.01400
C1065       C  0.35616248  0.54566939  0.44230969    -0.10800
C1066       C  0.35723964  0.54761576  0.40074515     0.03900
C1067       C  0.35988575  0.50976064  0.37859071    -0.10200
H1068       H  0.35176249  0.94525990  0.45607932     0.09500
H1069       H  0.35429298  0.57340334  0.45942869     0.07000
H1070       H  0.36541684  0.50971637  0.34662161     0.06800
C1071       C  0.04048381  0.61875309  0.15588954     0.03900
C1072       C  0.03633306  0.60560365  0.19432788    -0.12300
C1073       C  0.99965742  0.59729905  0.21168096     0.01400
C1074       C  0.46550110  0.59616467  0.18871712    -0.10800
C1075       C  0.46460793  0.61317145  0.15144397     0.03900
C1076       C  0.00351498  0.62422094  0.13353361    -0.10200
H1077       H  0.06284468  0.59746209  0.20988711     0.09500
H1078       H  0.43767737  0.58513829  0.20181181     0.07000
H1079       H  0.00536171  0.63758956  0.10437932     0.06800
C1080       C  0.15146290  0.65760805  0.14759132     0.46200
H1081       H  0.17131310  0.67738716  0.16579335    -0.02800
C1082       C  0.10483817  0.61261172  0.10416478     0.46300
H1083       H  0.08455966  0.59373031  0.08555742    -0.02800
C1084       C  0.13755279  0.67864233  0.10918281    -0.16500
C1085       C  0.17213489  0.61786323  0.13427665    -0.16300
C1086       C  0.11293200  0.64480249  0.17041809    -0.16600
C1087       C  0.11832274  0.65150110  0.08251252    -0.16600
C1088       C  0.14476465  0.59102409  0.11587081    -0.16200
C1089       C  0.08467075  0.62658056  0.14455907    -0.16500
C1090       C  0.39570216  0.85418484  0.03536692     0.03900
C1091       C  0.39027077  0.87635305  0.49827193    -0.12300
C1092       C  0.40120353  0.85815463  0.45944801     0.01400
C1093       C  0.41805315  0.82080563  0.46057896    -0.10800
C1094       C  0.41696647  0.79808522  0.99490379     0.03900
C1095       C  0.40884374  0.81571864  0.03145386    -0.10200
H1096       H  0.37707642  0.90559192  0.49998872     0.09500
H1097       H  0.42903697  0.80750086  0.43284041     0.07000
H1098       H  0.41707825  0.80032678  0.05803953     0.06800
O1099       O  0.26484468  0.72940686  0.44003788    -0.72200
O1100       O  0.24565133  0.72503174  0.05691635    -0.73200
O1101       O  0.19783410  0.72475700  0.98679220    -0.61800
O1102       O  0.31187015  0.72993419  0.51236712    -0.70200
O1103       O  0.31080986  0.79582224  0.51229443    -0.69800
O1104       O  0.19674155  0.79066548  0.98682145    -0.61000
O1105       O  0.24365592  0.79122891  0.05914877    -0.73500
O1106       O  0.26277256  0.79560096  0.44224677    -0.72300
Cu1107     Cu  0.25520921  0.72394563  0.49874401     1.04600
Cu1108     Cu  0.25335743  0.79668375  0.50042747     1.04300
C1109       C  0.25383620  0.76254300  0.42500046     0.94000
C1110       C  0.25454965  0.75806604  0.07421774     0.93100
C1111       C  0.18281479  0.75752052  0.99892037     0.85300
C1112       C  0.32575825  0.76303126  0.50011514     0.91600
O1113       O  0.28488307  0.56938091  0.26012784    -0.72200
O1114       O  0.28923804  0.95255626  0.24064416    -0.73200
O1115       O  0.28952184  0.02290819  0.19306423    -0.61800
O1116       O  0.28436844  0.49684977  0.30696698    -0.70200
O1117       O  0.21847124  0.49690085  0.30580781    -0.69800
O1118       O  0.22360463  0.02286473  0.19187473    -0.61000
O1119       O  0.22303527  0.95030994  0.23857713    -0.73500
O1120       O  0.21867667  0.56715874  0.25798996    -0.72300
Cu1121     Cu  0.29034602  0.51069421  0.25036385     1.04600
Cu1122     Cu  0.21758798  0.50901691  0.24842441     1.04300
C1123       C  0.25173814  0.58445505  0.24916038     0.94000
C1124       C  0.25620081  0.93522736  0.24947276     0.93100
C1125       C  0.25679125  0.01081809  0.17797144     0.85300
C1126       C  0.25122675  0.50905133  0.32082827     0.91600
O1127       O  0.44469525  0.74962711  0.27955713    -0.72200
O1128       O  0.06151158  0.76886543  0.28477545    -0.73200
O1129       O  0.99130463  0.81676480  0.28387530    -0.61800
O1130       O  0.51692585  0.70272628  0.28022063    -0.70200
O1131       O  0.51744411  0.70323296  0.21431492    -0.69800
O1132       O  0.99198379  0.81732750  0.21795164    -0.61000
O1133       O  0.06421944  0.77047221  0.21858339    -0.73500
O1134       O  0.44733355  0.75142414  0.21336692    -0.72300
Cu1135     Cu  0.00330423  0.75940365  0.28543489     1.04600
Cu1136     Cu  0.00556970  0.76068469  0.21269956     1.04300
C1137       C  0.42986652  0.76049268  0.24628567     0.94000
C1138       C  0.07904800  0.75976423  0.25191466     0.93100
C1139       C  0.00373163  0.83152733  0.25111439     0.85300
C1140       C  0.50499645  0.68855280  0.24712159     0.91600
C1141       C  0.40539765  0.65528713  0.71134817     0.03900
C1142       C  0.44276949  0.67260064  0.71302620    -0.12300
C1143       C  0.46486974  0.67277173  0.74768502     0.01400
C1144       C  0.44660532  0.66552353  0.78402123    -0.10800
C1145       C  0.40834258  0.65090989  0.78724840     0.03900
C1146       C  0.38678431  0.64423440  0.74981884    -0.10200
H1147       H  0.45660224  0.68299997  0.68541868     0.09500
H1148       H  0.46174710  0.67438581  0.81096314     0.07000
H1149       H  0.35779410  0.62994219  0.75103333     0.06800
C1150       C  0.21643543  0.91468545  0.63959896     0.03900
C1151       C  0.25379632  0.89305541  0.63275256    -0.12300
C1152       C  0.29230500  0.91141063  0.64407768     0.01400
C1153       C  0.29071649  0.94855585  0.66184536    -0.10800
C1154       C  0.25615452  0.97083251  0.66195830     0.03900
C1155       C  0.21976646  0.95283612  0.65439507    -0.10200
H1156       H  0.25247596  0.86426276  0.61811416     0.09500
H1157       H  0.31835782  0.96216223  0.67246455     0.07000
H1158       H  0.19285667  0.96803354  0.66325141     0.06800
C1159       C  0.15442079  0.79958552  0.89833356     0.03900
C1160       C  0.19601157  0.79826518  0.89967761    -0.12300
C1161       C  0.21667469  0.76219161  0.90235450     0.01400
C1162       C  0.19609336  0.72585727  0.89879018    -0.10800
C1163       C  0.15479064  0.72376354  0.89609228     0.03900
C1164       C  0.13339641  0.76158895  0.89388385    -0.10200
H1165       H  0.21252735  0.82633294  0.90201716     0.09500
H1166       H  0.21197459  0.69821610  0.90235953     0.07000
H1167       H  0.10159318  0.76157717  0.88801538     0.06800
C1168       C  0.11263798  0.66622699  0.96317163     0.03900
C1169       C  0.11802400  0.64411894  0.00030348    -0.12300
C1170       C  0.10706754  0.66236125  0.53910255     0.01400
C1171       C  0.09028951  0.69975729  0.53788609    -0.10800
C1172       C  0.09134529  0.72239450  0.00349036     0.03900
C1173       C  0.09943870  0.70466911  0.96698819    -0.10200
H1174       H  0.13119032  0.61486029  0.99860865     0.09500
H1175       H  0.07926465  0.71310851  0.56558248     0.07000
H1176       H  0.09116962  0.71996495  0.94035110     0.06800
C1177       C  0.15117692  0.54854779  0.59927047     0.03900
C1178       C  0.15274494  0.54714854  0.55781761    -0.12300
C1179       C  0.15564463  0.51120706  0.53620650     0.01400
C1180       C  0.15197873  0.97476628  0.55592544    -0.10800
C1181       C  0.15096270  0.97273117  0.59748596     0.03900
C1182       C  0.14832423  0.51053652  0.61972418    -0.10200
H1183       H  0.15624586  0.57520985  0.54237867     0.09500
H1184       H  0.15386529  0.94706727  0.53874437     0.07000
H1185       H  0.14285664  0.51051459  0.65170332     0.06800
C1186       C  0.40341531  0.85996172  0.70916347     0.03900
C1187       C  0.40486403  0.81836858  0.71038499    -0.12300
C1188       C  0.40719080  0.79763714  0.74643389     0.01400
C1189       C  0.40325206  0.81812957  0.78278179    -0.10800
C1190       C  0.40071316  0.85942712  0.78496820     0.03900
C1191       C  0.39873158  0.88090179  0.74718821    -0.10200
H1192       H  0.40746731  0.80190969  0.68230327     0.09500
H1193       H  0.40641492  0.80214328  0.81041507     0.07000
H1194       H  0.39284992  0.91270411  0.74725113     0.06800
C1195       C  0.10384752  0.86321644  0.96121741     0.03900
C1196       C  0.06238279  0.86201764  0.96287581    -0.12300
C1197       C  0.04097558  0.85877054  0.99890308     0.01400
C1198       C  0.06089858  0.86211522  0.53524586    -0.10800
C1199       C  0.10248145  0.86334082  0.53701949     0.03900
C1200       C  0.12452823  0.86594257  0.99910416    -0.10200
H1201       H  0.04671886  0.85899119  0.93490328     0.09500
H1202       H  0.04387860  0.85998161  0.56302145     0.07000
H1203       H  0.15652646  0.87132249  0.99895526     0.06800
O1204       O  0.06291727  0.77449159  0.97086712    -0.72200
O1205       O  0.44904061  0.74665222  0.96153837    -0.73200
O1206       O  0.99657209  0.81760763  0.96480117    -0.61800
O1207       O  0.51572750  0.70108312  0.96723218    -0.70200
O1208       O  0.51169905  0.70274754  0.53340121    -0.69800
O1209       O  0.99235309  0.81921778  0.53096999    -0.61000
O1210       O  0.44525457  0.74579310  0.52732373    -0.73500
O1211       O  0.05907688  0.77379471  0.53666058    -0.72300
Cu1212     Cu  0.00645000  0.75974547  0.96278729     1.04600
Cu1213     Cu  0.00170592  0.76059880  0.53539857     1.04300
C1214       C  0.07548452  0.76225632  0.00417817     0.94000
C1215       C  0.43270024  0.75816691  0.49406920     0.93100
C1216       C  0.00415761  0.83490744  0.99809535     0.85300
C1217       C  0.50398484  0.68543007  0.50015410     0.91600
C1218       C  0.34789916  0.54699321  0.60785773     0.03900
C1219       C  0.37008302  0.50989050  0.61319867    -0.12300
C1220       C  0.35190754  0.97108068  0.60223780     0.01400
C1221       C  0.31443702  0.97227752  0.58560936    -0.10800
C1222       C  0.29176883  0.50666927  0.58662550     0.03900
C1223       C  0.30947038  0.54318051  0.59465954    -0.10200
H1224       H  0.39932205  0.51161616  0.62635842     0.09500
H1225       H  0.30108131  0.94456745  0.57465698     0.07000
H1226       H  0.29415592  0.56982723  0.58639435     0.06800
O1227       O  0.19497933  0.97893775  0.48758477    -0.72200
O1228       O  0.31143866  0.97557975  0.00702991    -0.73200
O1229       O  0.24031232  0.97341421  0.55453232    -0.61800
O1230       O  0.26846058  0.98146750  0.94065788    -0.70200
O1231       O  0.26789007  0.54728895  0.94394551    -0.69800
O1232       O  0.23987204  0.53923937  0.55786353    -0.61000
O1233       O  0.31336699  0.54174684  0.01085879    -0.73500
O1234       O  0.19684943  0.54511178  0.49159465    -0.72300
Cu1235     Cu  0.25354612  0.97403472  0.99711768     1.04600
Cu1236     Cu  0.25475252  0.54667749  0.00139393     1.04300
C1237       C  0.17942568  0.51191313  0.49932023     0.94000
C1238       C  0.32886000  0.50872966  0.99913866     0.93100
C1239       C  0.25193664  0.50597805  0.57071282     0.85300
C1240       C  0.25628612  0.51468495  0.92781768     0.91600
C1241       C  0.40550706  0.65691847  0.96152947     0.03900
C1242       C  0.44709485  0.65821220  0.96321317    -0.12300
C1243       C  0.46710718  0.66161600  0.49949992     0.01400
C1244       C  0.44578058  0.65839935  0.53560091    -0.10800
C1245       C  0.40430002  0.65713183  0.53736081     0.03900
C1246       C  0.38355109  0.65431195  0.49950622    -0.10200
H1247       H  0.46404768  0.66034709  0.93540010     0.09500
H1248       H  0.46151865  0.66145713  0.56353128     0.07000
H1249       H  0.35156126  0.64889267  0.49972427     0.06800
C1250       C  0.35707070  0.86252344  0.64639934     0.46200
H1251       H  0.33738401  0.84428753  0.66631570    -0.02800
C1252       C  0.40184936  0.90604538  0.59964076     0.46300
H1253       H  0.42062542  0.92468764  0.57929543    -0.02800
C1254       C  0.33593438  0.90089467  0.63261337    -0.16500
C1255       C  0.39692570  0.87580659  0.66686544    -0.16300
C1256       C  0.36967231  0.83977231  0.60780390    -0.16600
C1257       C  0.36295323  0.92765842  0.61335157    -0.16600
C1258       C  0.42365992  0.89424849  0.63941729    -0.16200
C1259       C  0.38783011  0.86564838  0.57949959    -0.16500
C1260       C  0.35367460  0.79659415  0.60259478     0.03900
C1261       C  0.31235297  0.79459285  0.60030820    -0.12300
C1262       C  0.29164924  0.75833581  0.59694271     0.01400
C1263       C  0.31222394  0.72222375  0.59960740    -0.10800
C1264       C  0.35383409  0.72079096  0.60047553     0.03900
C1265       C  0.37501276  0.75872986  0.60464118    -0.10200
H1266       H  0.29653663  0.82225020  0.59680321     0.09500
H1267       H  0.29559403  0.69420630  0.59748851     0.07000
H1268       H  0.40686932  0.75866001  0.61022056     0.06800
C1269       C  0.39968757  0.61116456  0.60170000     0.46200
H1270       H  0.41826855  0.59080403  0.58285646    -0.02800
C1271       C  0.35629084  0.65789710  0.64670195     0.46300
H1272       H  0.33808629  0.67776757  0.66648084    -0.02800
C1273       C  0.38792649  0.65097283  0.58000189    -0.16500
C1274       C  0.35935244  0.59106667  0.61581513    -0.16100
C1275       C  0.42136160  0.62476219  0.64051871    -0.16600
C1276       C  0.36954490  0.67841265  0.60682241    -0.16600
C1277       C  0.33351321  0.61930689  0.63413079    -0.16200
C1278       C  0.39473798  0.64407417  0.66767436    -0.16500
C1279       C  0.21454027  0.61154592  0.64999950     0.03900
C1280       C  0.21594954  0.61019149  0.69158570    -0.12300
C1281       C  0.25207328  0.60731744  0.71213480     0.01400
C1282       C  0.28837133  0.61087480  0.69146751    -0.10800
C1283       C  0.29036566  0.61389103  0.65019828     0.03900
C1284       C  0.25249358  0.61611944  0.62890768    -0.10200
H1285       H  0.18791133  0.60787816  0.70817003     0.09500
H1286       H  0.31605577  0.60707047  0.70721819     0.07000
H1287       H  0.25243655  0.62207583  0.59712858     0.06800
C1288       C  0.04198765  0.60976064  0.85291099     0.03900
C1289       C  0.00406592  0.63045331  0.85546965    -0.12300
C1290       C  0.46614697  0.60843979  0.85259825     0.01400
C1291       C  0.46792741  0.56686177  0.85128163    -0.10800
C1292       C  0.00427772  0.54691128  0.84804762     0.03900
C1293       C  0.04032029  0.56828635  0.85153207    -0.10200
H1294       H  0.00418628  0.66243641  0.86090762     0.09500
H1295       H  0.44015703  0.54987188  0.84897805     0.07000
H1296       H  0.06828724  0.55262579  0.84852044     0.06800
O1297       O  0.03843955  0.50259017  0.80679264    -0.72200
O1298       O  0.03573330  0.02206088  0.69035663    -0.73200
O1299       O  0.03182714  0.56898093  0.76403326    -0.61800
O1300       O  0.04192252  0.95528696  0.73572070    -0.70200
O1301       O  0.47614303  0.95128318  0.73464990    -0.69800
O1302       O  0.46605049  0.56500729  0.76286384    -0.61000
O1303       O  0.46955592  0.01762226  0.69189750    -0.73500
O1304       O  0.47226992  0.49827385  0.80836878    -0.72300
Cu1305     Cu  0.04029074  0.51264407  0.74899161     1.04600
Cu1306     Cu  0.46768629  0.50763079  0.74968839     1.04300
C1307       C  0.00512891  0.51011455  0.82409776     0.94000
C1308       C  0.00289887  0.01023616  0.67458006     0.93100
C1309       C  0.99859355  0.58146964  0.75154702     0.85300
C1310       C  0.00940915  0.93878410  0.74704972     0.91600
C1311       C  0.10768407  0.66071144  0.71362483     0.03900
C1312       C  0.10560820  0.70203257  0.71570064    -0.12300
C1313       C  0.10174717  0.72264963  0.75195607     0.01400
C1314       C  0.10391769  0.70201048  0.78806425    -0.10800
C1315       C  0.10498202  0.66040207  0.78940571     0.03900
C1316       C  0.10946925  0.63930572  0.75144917    -0.10200
H1317       H  0.10262618  0.71793809  0.68807356     0.09500
H1318       H  0.10141792  0.71857723  0.81609379     0.07000
H1319       H  0.11509145  0.60745693  0.75148262     0.06800
C1320       C  0.16031519  0.97341688  0.89083403     0.03900
C1321       C  0.13808379  0.51049271  0.88547964    -0.12300
C1322       C  0.15622538  0.54932386  0.89641242     0.01400
C1323       C  0.19367363  0.54820804  0.91306577    -0.10800
C1324       C  0.21640616  0.51387202  0.91201667     0.03900
C1325       C  0.19877397  0.97731606  0.90396423    -0.10200
H1326       H  0.10884979  0.50874794  0.87231623     0.09500
H1327       H  0.20700238  0.57596143  0.92396038     0.07000
H1328       H  0.21417740  0.95070900  0.91218462     0.06800
C1329       C  0.10641836  0.61437819  0.89891923     0.46200
H1330       H  0.08762345  0.59576908  0.91927802    -0.02800
C1331       C  0.15127655  0.65783630  0.85215395     0.46300
H1332       H  0.17099620  0.67605213  0.83225099    -0.02800
C1333       C  0.14523650  0.59269357  0.88515504    -0.16500
C1334       C  0.08460135  0.62620160  0.85916515    -0.16300
C1335       C  0.12056915  0.65472126  0.91906894    -0.16600
C1336       C  0.17229287  0.61936968  0.86581059    -0.16600
C1337       C  0.11136198  0.64464307  0.83173438    -0.16200
C1338       C  0.13880379  0.68057145  0.89079482    -0.16500
C1339       C  0.29175518  0.60552038  0.85853439     0.03900
C1340       C  0.28837113  0.56723858  0.84399549    -0.12300
C1341       C  0.25195306  0.54917083  0.83661748     0.01400
C1342       C  0.21739741  0.57145531  0.83672513    -0.10800
C1343       C  0.21586739  0.60872568  0.85425754     0.03900
C1344       C  0.25439731  0.62718701  0.86530224    -0.10200
H1345       H  0.31524978  0.55199933  0.83511910     0.09500
H1346       H  0.18972834  0.55779317  0.82625346     0.07000
H1347       H  0.25569659  0.65612414  0.87968614     0.06800
C1348       C  0.35733752  0.65648699  0.85281475     0.46200
H1349       H  0.33832343  0.67546738  0.83380833    -0.02800
C1350       C  0.40178143  0.61210257  0.89725327     0.46300
H1351       H  0.42085185  0.59308346  0.91630796    -0.02800
C1352       C  0.39697139  0.64221193  0.83104619    -0.16500
C1353       C  0.37164081  0.67831645  0.89239879    -0.16300
C1354       C  0.33559758  0.61684103  0.86710884    -0.16600
C1355       C  0.42325526  0.62411322  0.85828044    -0.16600
C1356       C  0.38972904  0.65110387  0.91870575    -0.16200
C1357       C  0.36285167  0.59057072  0.88519958    -0.16500
C1358       C  0.35909118  0.79815211  0.90030449     0.03900
C1359       C  0.34163982  0.79672675  0.93763261    -0.12300
C1360       C  0.34151645  0.76222154  0.95996818     0.01400
C1361       C  0.34879171  0.72576000  0.94193238    -0.10800
C1362       C  0.36321916  0.72224499  0.90361446     0.03900
C1363       C  0.37001946  0.75955354  0.88186713    -0.10200
H1364       H  0.33119091  0.82442065  0.95127120     0.09500
H1365       H  0.33991905  0.69893270  0.95725447     0.07000
H1366       H  0.38433595  0.75818992  0.85288263     0.06800
C1367       C  0.40331366  0.90773552  0.89435542     0.46200
H1368       H  0.42357414  0.92666451  0.91293706    -0.02800
C1369       C  0.35675407  0.86260430  0.85097053     0.46300
H1370       H  0.33694976  0.84276957  0.83277666    -0.02800
C1371       C  0.36340418  0.92928694  0.88256873    -0.16500
C1372       C  0.42353920  0.89361736  0.85405029    -0.16300
C1373       C  0.38979012  0.86892946  0.91608601    -0.16600
C1374       C  0.33607969  0.90238837  0.86418336    -0.16600
C1375       C  0.39533920  0.87531003  0.82818975    -0.16200
C1376       C  0.37053687  0.84171489  0.88948438    -0.16500
C1377       C  0.29364358  0.90857988  0.84855651     0.03900
C1378       C  0.25575985  0.90424524  0.86980848    -0.12300
C1379       C  0.21785030  0.90637891  0.84859174     0.01400
C1380       C  0.21973103  0.90906853  0.80730893    -0.10800
C1381       C  0.25594791  0.91241389  0.78651135     0.03900
C1382       C  0.29211686  0.90956232  0.80696269    -0.10200
H1383       H  0.25590277  0.89851635  0.90162990     0.09500
H1384       H  0.19202588  0.91284922  0.79164194     0.07000
H1385       H  0.32010428  0.91169312  0.79027018     0.06800
C1386       C  0.10850682  0.90920535  0.89691814     0.46200
H1387       H  0.08988524  0.92955266  0.91573506    -0.02800
C1388       C  0.15196902  0.86246330  0.85200867     0.46300
H1389       H  0.17020745  0.84257613  0.83228064    -0.02800
C1390       C  0.08689858  0.89561236  0.85803974    -0.16500
C1391       C  0.14888107  0.92931053  0.88291616    -0.16300
C1392       C  0.12025788  0.86939006  0.91862425    -0.16600
C1393       C  0.11359904  0.87636709  0.83091237    -0.16600
C1394       C  0.17473724  0.90103429  0.86467965    -0.16200
C1395       C  0.13864372  0.84192926  0.89184673    -0.16500
C1396       C  0.46625476  0.91069216  0.64565720     0.03900
C1397       C  0.00420215  0.89004129  0.64315659    -0.12300
C1398       C  0.04208595  0.91212386  0.64597720     0.01400
C1399       C  0.04023578  0.95369618  0.64721911    -0.10800
C1400       C  0.00384743  0.97357619  0.65046305     0.03900
C1401       C  0.46785725  0.95215243  0.64695330    -0.10200
H1402       H  0.00412564  0.85804790  0.63777659     0.09500
H1403       H  0.06797792  0.97073937  0.64949334     0.07000
H1404       H  0.43986328  0.96776994  0.64994319     0.06800
C1405       C  0.15081044  0.86397687  0.64559299     0.46200
H1406       H  0.16984581  0.84501385  0.66459497    -0.02800
C1407       C  0.10631781  0.90832458  0.60115254     0.46300
H1408       H  0.08722917  0.92732411  0.58209509    -0.02800
C1409       C  0.11136035  0.87849658  0.66746870    -0.16500
C1410       C  0.17261089  0.90345155  0.63101277    -0.16300
C1411       C  0.13623939  0.84203469  0.60620566    -0.16600
C1412       C  0.08499034  0.89652136  0.64025835    -0.16600
C1413       C  0.14535951  0.92976185  0.61297190    -0.16200
C1414       C  0.11817942  0.86920184  0.57984169    -0.16500
C1415       C  0.14471106  0.79812954  0.59509604     0.03900
C1416       C  0.13777713  0.76082230  0.61679384    -0.12300
C1417       C  0.14897824  0.72223889  0.59846937     0.01400
C1418       C  0.16667537  0.72370841  0.56126054    -0.10800
C1419       C  0.16684008  0.75823187  0.53893934     0.03900
C1420       C  0.15942967  0.79466708  0.55692318    -0.10200
H1421       H  0.12317079  0.76221670  0.64558636     0.09500
H1422       H  0.17723849  0.69603418  0.54767080     0.07000
H1423       H  0.16831925  0.82152726  0.54166501     0.06800
C1424       C  0.10010624  0.86975774  0.71125895     0.03900
C1425       C  0.06197897  0.85489203  0.71441161    -0.12300
C1426       C  0.04373353  0.84751740  0.75069817     0.01400
C1427       C  0.06577992  0.84773113  0.78540157    -0.10800
C1428       C  0.10305966  0.86522802  0.78716650     0.03900
C1429       C  0.12161532  0.87649854  0.74871105    -0.10200
H1430       H  0.04691424  0.84601073  0.68742341     0.09500
H1431       H  0.05195688  0.83722102  0.81297215     0.07000
H1432       H  0.15048523  0.89098965  0.74748768     0.06800
C1433       C  0.46771168  0.90147058  0.84272863     0.03900
C1434       C  0.00470772  0.89600347  0.86503884    -0.12300
C1435       C  0.04360003  0.90705483  0.84708223     0.01400
C1436       C  0.04263611  0.92402090  0.80978941    -0.10800
C1437       C  0.00843667  0.92289710  0.78688469     0.03900
C1438       C  0.47179595  0.91465142  0.80430899    -0.10200
H1439       H  0.00286993  0.88265435  0.89420383     0.09500
H1440       H  0.07042511  0.93509465  0.79666444     0.07000
H1441       H  0.44525186  0.92284755  0.78882140     0.06800
C1442       C  0.35694141  0.97178871  0.89911136     0.03900
C1443       C  0.35528756  0.97327512  0.94057597    -0.12300
C1444       C  0.35246232  0.50928620  0.96211502     0.01400
C1445       C  0.35616257  0.54566954  0.94230971    -0.10800
C1446       C  0.35723957  0.54761578  0.90074513     0.03900
C1447       C  0.35988563  0.50976070  0.87859042    -0.10200
H1448       H  0.35176268  0.94525983  0.95607923     0.09500
H1449       H  0.35429315  0.57340280  0.95942833     0.07000
H1450       H  0.36541648  0.50971642  0.84662255     0.06800
C1451       C  0.04048388  0.61875314  0.65588954     0.03900
C1452       C  0.03633316  0.60560365  0.69432785    -0.12300
C1453       C  0.99965754  0.59729891  0.71168093     0.01400
C1454       C  0.46550127  0.59616470  0.68871706    -0.10800
C1455       C  0.46460792  0.61317147  0.65144404     0.03900
C1456       C  0.00351502  0.62422097  0.63353366    -0.10200
H1457       H  0.06284486  0.59746212  0.70988714     0.09500
H1458       H  0.43767684  0.58513805  0.70181217     0.07000
H1459       H  0.00536163  0.63758970  0.60437927     0.06800
C1460       C  0.15146305  0.65760812  0.64759135     0.46200
H1461       H  0.17131308  0.67738706  0.66579319    -0.02800
C1462       C  0.10483830  0.61261180  0.60416485     0.46300
H1463       H  0.08455953  0.59373019  0.58555724    -0.02800
C1464       C  0.13755289  0.67864235  0.60918282    -0.16500
C1465       C  0.17213494  0.61786323  0.63427666    -0.16300
C1466       C  0.11293212  0.64480251  0.67041810    -0.16600
C1467       C  0.11832288  0.65150108  0.58251252    -0.16600
C1468       C  0.14476467  0.59102407  0.61587088    -0.16200
C1469       C  0.08467084  0.62658063  0.64455907    -0.16500
C1470       C  0.39570226  0.85418483  0.53536691     0.03900
C1471       C  0.39027062  0.87635309  0.99827194    -0.12300
C1472       C  0.40120347  0.85815468  0.95944802     0.01400
C1473       C  0.41805310  0.82080576  0.96057903    -0.10800
C1474       C  0.41696640  0.79808512  0.49490379     0.03900
C1475       C  0.40884366  0.81571850  0.53145389    -0.10200
H1476       H  0.37707627  0.90559189  0.99998873     0.09500
H1477       H  0.42903700  0.80750080  0.93284012     0.07000
H1478       H  0.41707804  0.80032687  0.55803922     0.06800
O1479       O  0.26484482  0.72940693  0.94003772    -0.72200
O1480       O  0.24565138  0.72503176  0.55691645    -0.73200
O1481       O  0.19783416  0.72475699  0.48679239    -0.61800
O1482       O  0.31187022  0.72993415  0.01236696    -0.70200
O1483       O  0.31080977  0.79582219  0.01229437    -0.69800
O1484       O  0.19674169  0.79066549  0.48682147    -0.61000
O1485       O  0.24365591  0.79122894  0.55914878    -0.73500
O1486       O  0.26277247  0.79560101  0.94224675    -0.72300
Cu1487     Cu  0.25520925  0.72394565  0.99874384     1.04600
Cu1488     Cu  0.25335733  0.79668371  0.00042745     1.04300
C1489       C  0.25383629  0.76254307  0.92500033     0.94000
C1490       C  0.25454971  0.75806609  0.57421777     0.93100
C1491       C  0.18281488  0.75752060  0.49892046     0.85300
C1492       C  0.32575831  0.76303125  0.00011510     0.91600
O1493       O  0.28488313  0.56938094  0.76012779    -0.72200
O1494       O  0.28923821  0.95255631  0.74064417    -0.73200
O1495       O  0.28952199  0.02290820  0.69306408    -0.61800
O1496       O  0.28436849  0.49684983  0.80696690    -0.70200
O1497       O  0.21847128  0.49690090  0.80580781    -0.69800
O1498       O  0.22360479  0.02286477  0.69187472    -0.61000
O1499       O  0.22303543  0.95030998  0.73857713    -0.73500
O1500       O  0.21867673  0.56715878  0.75798996    -0.72300
Cu1501     Cu  0.29034613  0.51069426  0.75036374     1.04600
Cu1502     Cu  0.21758810  0.50901696  0.74842441     1.04300
C1503       C  0.25173820  0.58445510  0.74916038     0.94000
C1504       C  0.25620098  0.93522737  0.74947271     0.93100
C1505       C  0.25679140  0.01081809  0.67797137     0.85300
C1506       C  0.25122686  0.50905136  0.82082825     0.91600
O1507       O  0.44469521  0.74962705  0.77955716    -0.72200
O1508       O  0.06151172  0.76886537  0.78477560    -0.73200
O1509       O  0.99130482  0.81676462  0.78387531    -0.61800
O1510       O  0.51692598  0.70272620  0.78022067    -0.70200
O1511       O  0.51744418  0.70323301  0.71431492    -0.69800
O1512       O  0.99198392  0.81732752  0.71795166    -0.61000
O1513       O  0.06421958  0.77047225  0.71858355    -0.73500
O1514       O  0.44733347  0.75142415  0.71336693    -0.72300
Cu1515     Cu  0.00330437  0.75940354  0.78543492     1.04600
Cu1516     Cu  0.00556981  0.76068472  0.71269957     1.04300
C1517       C  0.42986646  0.76049269  0.74628574     0.94000
C1518       C  0.07904810  0.75976416  0.75191481     0.93100
C1519       C  0.00373176  0.83152727  0.75111443     0.85300
C1520       C  0.50499655  0.68855281  0.74712159     0.91600
C1521       C  0.90539864  0.15528686  0.21134826     0.03900
C1522       C  0.94277033  0.17260054  0.21302646    -0.12300
C1523       C  0.96487056  0.17277194  0.24768519     0.01400
C1524       C  0.94660613  0.16552387  0.28402147    -0.10800
C1525       C  0.90834349  0.15090991  0.28724854     0.03900
C1526       C  0.88678544  0.14423415  0.24981897    -0.10200
H1527       H  0.95660340  0.18300010  0.18541824     0.09500
H1528       H  0.96174774  0.17438628  0.31096324     0.07000
H1529       H  0.85779485  0.12994144  0.25103347     0.06800
C1530       C  0.71643585  0.41468580  0.13959909     0.03900
C1531       C  0.75379669  0.39305569  0.13275286    -0.12300
C1532       C  0.79230536  0.41141062  0.14407823     0.01400
C1533       C  0.79071725  0.44855595  0.16184622    -0.10800
C1534       C  0.75615508  0.47083256  0.16195891     0.03900
C1535       C  0.71976689  0.45283652  0.15439531    -0.10200
H1536       H  0.75247632  0.36426292  0.11811424     0.09500
H1537       H  0.81835721  0.46216151  0.17246489     0.07000
H1538       H  0.69285773  0.46803370  0.16325114     0.06800
C1539       C  0.65442177  0.29958574  0.39833389     0.03900
C1540       C  0.69601259  0.29826559  0.39967814    -0.12300
C1541       C  0.71667572  0.26219190  0.40235477     0.01400
C1542       C  0.69609449  0.22585763  0.39878989    -0.10800
C1543       C  0.65479186  0.22376369  0.39609204     0.03900
C1544       C  0.63339752  0.26158912  0.39388384    -0.10200
H1545       H  0.71252806  0.32633295  0.40201795     0.09500
H1546       H  0.71197613  0.19821596  0.40235892     0.07000
H1547       H  0.60159448  0.26157726  0.38801536     0.06800
C1548       C  0.61263918  0.16622703  0.46317146     0.03900
C1549       C  0.61802518  0.14411907  0.50030331    -0.12300
C1550       C  0.60706864  0.16236162  0.03910236     0.01400
C1551       C  0.59029082  0.19975778  0.03788580    -0.10800
C1552       C  0.59134668  0.22239462  0.50349021     0.03900
C1553       C  0.59944007  0.20466923  0.46698800    -0.10200
H1554       H  0.63119157  0.11486001  0.49860847     0.09500
H1555       H  0.57926605  0.21310918  0.06558216     0.07000
H1556       H  0.59117101  0.21996490  0.44035114     0.06800
C1557       C  0.65117742  0.04854770  0.09927006     0.03900
C1558       C  0.65274541  0.04714836  0.05781726    -0.12300
C1559       C  0.65564475  0.01120705  0.03620606     0.01400
C1560       C  0.65197870  0.47476629  0.05592553    -0.10800
C1561       C  0.65096269  0.47273139  0.09748620     0.03900
C1562       C  0.64832426  0.01053640  0.11972380    -0.10200
H1563       H  0.65624669  0.07521017  0.04237810     0.09500
H1564       H  0.65386534  0.44706792  0.03874494     0.07000
H1565       H  0.64285662  0.01051451  0.15170249     0.06800
C1566       C  0.90341573  0.35996190  0.20916408     0.03900
C1567       C  0.90486460  0.31836865  0.21038536    -0.12300
C1568       C  0.90719117  0.29763722  0.24643442     0.01400
C1569       C  0.90325225  0.31812959  0.28278229    -0.10800
C1570       C  0.90071337  0.35942716  0.28496879     0.03900
C1571       C  0.89873183  0.38090187  0.24718881    -0.10200
H1572       H  0.90746803  0.30191036  0.18230447     0.09500
H1573       H  0.90641504  0.30214323  0.31041561     0.07000
H1574       H  0.89285008  0.41270424  0.24725182     0.06800
C1575       C  0.60384814  0.36321652  0.46121788     0.03900
C1576       C  0.56238337  0.36201769  0.46287606    -0.12300
C1577       C  0.54097614  0.35877056  0.49890339     0.01400
C1578       C  0.56089911  0.36211555  0.03524588    -0.10800
C1579       C  0.60248201  0.36334103  0.03701976     0.03900
C1580       C  0.62452904  0.36594263  0.49910463    -0.10200
H1581       H  0.54671991  0.35899126  0.43490422     0.09500
H1582       H  0.54387897  0.35998205  0.06302142     0.07000
H1583       H  0.65652610  0.37132237  0.49895576     0.06800
O1584       O  0.56291826  0.27449140  0.47086682    -0.72200
O1585       O  0.94904141  0.24665180  0.46153878    -0.73200
O1586       O  0.49657296  0.31760734  0.46480129    -0.61800
O1587       O  0.01572866  0.20108281  0.46723213    -0.70200
O1588       O  0.01170025  0.20274767  0.03340091    -0.69800
O1589       O  0.49235383  0.31921786  0.03096972    -0.61000
O1590       O  0.94525569  0.24579296  0.02732390    -0.73500
O1591       O  0.55907800  0.27379523  0.03665996    -0.72300
Cu1592     Cu  0.50645093  0.25974516  0.46278729     1.04600
Cu1593     Cu  0.50170706  0.26059898  0.03539828     1.04300
C1594       C  0.57548569  0.26225638  0.50417787     0.94000
C1595       C  0.93270116  0.25816679  0.99406947     0.93100
C1596       C  0.50415833  0.33490719  0.49809548     0.85300
C1597       C  0.00398595  0.18543008  0.00015386     0.91600
C1598       C  0.84789974  0.04699339  0.10785751     0.03900
C1599       C  0.87008339  0.00989054  0.11319866    -0.12300
C1600       C  0.85190747  0.47108044  0.10223788     0.01400
C1601       C  0.81443687  0.47227703  0.08560954    -0.10800
C1602       C  0.79176910  0.00666984  0.08662543     0.03900
C1603       C  0.80947105  0.04318094  0.09465919    -0.10200
H1604       H  0.89932186  0.01161600  0.12635816     0.09500
H1605       H  0.80108121  0.44456677  0.07465714     0.07000
H1606       H  0.79415670  0.06982809  0.08639351     0.06800
O1607       O  0.69497924  0.47893794  0.98758468    -0.72200
O1608       O  0.81143844  0.47558030  0.50703011    -0.73200
O1609       O  0.74031224  0.47341355  0.05453202    -0.61800
O1610       O  0.76846072  0.48146856  0.44065782    -0.70200
O1611       O  0.76789027  0.04728803  0.44394529    -0.69800
O1612       O  0.73987254  0.03923993  0.05786324    -0.61000
O1613       O  0.81336722  0.04174670  0.51085853    -0.73500
O1614       O  0.69684999  0.04511146  0.99159437    -0.72300
Cu1615     Cu  0.75354592  0.47403508  0.49711750     1.04600
Cu1616     Cu  0.75475279  0.04667734  0.50139378     1.04300
C1617       C  0.67942608  0.01191283  0.99932000     0.94000
C1618       C  0.82886001  0.00872943  0.49913842     0.93100
C1619       C  0.75193694  0.00597870  0.07071285     0.85300
C1620       C  0.75628603  0.01468406  0.42781761     0.91600
C1621       C  0.90550805  0.15691843  0.46152957     0.03900
C1622       C  0.94709585  0.15821196  0.46321327    -0.12300
C1623       C  0.96710825  0.16161596  0.99949991     0.01400
C1624       C  0.94578164  0.15839955  0.03560090    -0.10800
C1625       C  0.90430112  0.15713187  0.03736091     0.03900
C1626       C  0.88355196  0.15431175  0.99950634    -0.10200
H1627       H  0.96404886  0.16034675  0.43539991     0.09500
H1628       H  0.96151990  0.16145756  0.06353152     0.07000
H1629       H  0.85156306  0.14889249  0.99972445     0.06800
C1630       C  0.85707107  0.36252344  0.14639994     0.46200
H1631       H  0.83738434  0.34428761  0.16631634    -0.02800
C1632       C  0.90184964  0.40604518  0.09964123     0.46300
H1633       H  0.92062589  0.42468753  0.07929559    -0.02800
C1634       C  0.83593467  0.40089459  0.13261377    -0.16500
C1635       C  0.89692602  0.37580676  0.16686602    -0.16300
C1636       C  0.86967284  0.33977211  0.10780465    -0.16600
C1637       C  0.86295344  0.42765826  0.11335181    -0.16600
C1638       C  0.92366026  0.39424856  0.13941779    -0.16200
C1639       C  0.88783057  0.36564810  0.07950022    -0.16500
C1640       C  0.85367530  0.29659392  0.10259566     0.03900
C1641       C  0.81235367  0.29459242  0.10030938    -0.12300
C1642       C  0.79165002  0.25833547  0.09694347     0.01400
C1643       C  0.81222478  0.22222330  0.09960768    -0.10800
C1644       C  0.85383505  0.22079082  0.10047579     0.03900
C1645       C  0.87501356  0.25872968  0.10464175    -0.10200
H1646       H  0.79653698  0.32225010  0.09680484     0.09500
H1647       H  0.79559544  0.19420661  0.09748852     0.07000
H1648       H  0.90687032  0.25865988  0.11022112     0.06800
C1649       C  0.89968856  0.11116439  0.10169995     0.46200
H1650       H  0.91826918  0.09080409  0.08285661    -0.02800
C1651       C  0.85629187  0.15789702  0.14670206     0.46300
H1652       H  0.83808743  0.17776751  0.16648094    -0.02800
C1653       C  0.88792756  0.15097281  0.08000199    -0.16500
C1654       C  0.85935329  0.09106670  0.11581509    -0.16100
C1655       C  0.92136257  0.12476197  0.14051874    -0.16600
C1656       C  0.86954595  0.17841256  0.10682254    -0.16600
C1657       C  0.83351416  0.11930690  0.13413084    -0.16200
C1658       C  0.89473898  0.14407396  0.16767444    -0.16500
C1659       C  0.71454114  0.11154560  0.14999922     0.03900
C1660       C  0.71595036  0.11019094  0.19158536    -0.12300
C1661       C  0.75207401  0.10731722  0.21213464     0.01400
C1662       C  0.78837214  0.11087506  0.19146750    -0.10800
C1663       C  0.79036655  0.11389109  0.15019826     0.03900
C1664       C  0.75249455  0.11611931  0.12890739    -0.10200
H1665       H  0.68791183  0.10787727  0.20816975     0.09500
H1666       H  0.81605634  0.10707117  0.20721826     0.07000
H1667       H  0.75243759  0.12207566  0.09712903     0.06800
C1668       C  0.54198875  0.10976105  0.35291019     0.03900
C1669       C  0.50406692  0.13045378  0.35546963    -0.12300
C1670       C  0.96614796  0.10843995  0.35259823     0.01400
C1671       C  0.96792858  0.06686208  0.35128125    -0.10800
C1672       C  0.50427893  0.04691159  0.34804652     0.03900
C1673       C  0.54032127  0.06828694  0.35153047    -0.10200
H1674       H  0.50418719  0.16243593  0.36090788     0.09500
H1675       H  0.94015765  0.04987179  0.34897789     0.07000
H1676       H  0.56828971  0.05262561  0.34851798     0.06800
O1677       O  0.53844011  0.00258967  0.30679181    -0.72200
O1678       O  0.53573337  0.52206104  0.19035733    -0.73200
O1679       O  0.53182814  0.06898045  0.26403270    -0.61800
O1680       O  0.54192306  0.45528758  0.23572178    -0.70200
O1681       O  0.97614358  0.45128316  0.23465047    -0.69800
O1682       O  0.96605145  0.06500752  0.26286361    -0.61000
O1683       O  0.96955603  0.51762211  0.19189794    -0.73500
O1684       O  0.97227041  0.99827391  0.30836845    -0.72300
Cu1685     Cu  0.54029096  0.01264364  0.24899076     1.04600
Cu1686     Cu  0.96768646  0.00763097  0.24968803     1.04300
C1687       C  0.50512964  0.01011453  0.32409712     0.94000
C1688       C  0.50289901  0.51023615  0.17458066     0.93100
C1689       C  0.49859461  0.08146967  0.25154684     0.85300
C1690       C  0.50940976  0.43878442  0.24705054     0.91600
C1691       C  0.60768493  0.16071156  0.21362450     0.03900
C1692       C  0.60560869  0.20203263  0.21570036    -0.12300
C1693       C  0.60174772  0.22264987  0.25195560     0.01400
C1694       C  0.60391856  0.20201090  0.28806400    -0.10800
C1695       C  0.60498332  0.16040240  0.28940534     0.03900
C1696       C  0.60947044  0.13930603  0.25144888    -0.10200
H1697       H  0.60262625  0.21793847  0.18807253     0.09500
H1698       H  0.60141874  0.21857720  0.31609275     0.07000
H1699       H  0.61509280  0.10745694  0.25148235     0.06800
C1700       C  0.66031532  0.47341710  0.39083415     0.03900
C1701       C  0.63808377  0.01049276  0.38547963    -0.12300
C1702       C  0.65622559  0.04932377  0.39641232     0.01400
C1703       C  0.69367389  0.04820778  0.41306576    -0.10800
C1704       C  0.71640605  0.01387140  0.41201660     0.03900
C1705       C  0.69877413  0.47731661  0.40396427    -0.10200
H1706       H  0.60884925  0.00874835  0.37231593     0.09500
H1707       H  0.70700252  0.07596038  0.42396007     0.07000
H1708       H  0.71417780  0.45070971  0.41218456     0.06800
C1709       C  0.60641911  0.11437847  0.39891886     0.46200
H1710       H  0.58762405  0.09576952  0.41927748    -0.02800
C1711       C  0.65127775  0.15783637  0.35215373     0.46300
H1712       H  0.67099754  0.17605213  0.33225092    -0.02800
C1713       C  0.64523713  0.09269358  0.38515476    -0.16500
C1714       C  0.58460235  0.12620209  0.35916467    -0.16300
C1715       C  0.62057024  0.15472139  0.41906869    -0.16600
C1716       C  0.67229371  0.11936946  0.36581033    -0.16600
C1717       C  0.61136317  0.14464344  0.33173404    -0.16200
C1718       C  0.63880501  0.18057155  0.39079461    -0.16500
C1719       C  0.79175612  0.10552009  0.35853423     0.03900
C1720       C  0.78837231  0.06723820  0.34399506    -0.12300
C1721       C  0.75195410  0.04917045  0.33661734     0.01400
C1722       C  0.71739814  0.07145466  0.33672519    -0.10800
C1723       C  0.71586828  0.10872523  0.35425754     0.03900
C1724       C  0.75439816  0.12718652  0.36530220    -0.10200
H1725       H  0.81525001  0.05199974  0.33511867     0.09500
H1726       H  0.68973013  0.05779306  0.32625400     0.07000
H1727       H  0.75569733  0.15612374  0.37968629     0.06800
C1728       C  0.85733840  0.15648681  0.35281481     0.46200
H1729       H  0.83832430  0.17546711  0.33380837    -0.02800
C1730       C  0.90178245  0.11210241  0.39725338     0.46300
H1731       H  0.92085271  0.09308351  0.41630783    -0.02800
C1732       C  0.89697233  0.14221188  0.33104632    -0.16500
C1733       C  0.87164166  0.17831625  0.39239888    -0.16300
C1734       C  0.83559852  0.11684079  0.36710883    -0.16600
C1735       C  0.92325622  0.12411326  0.35828053    -0.16600
C1736       C  0.88973000  0.15110375  0.41870583    -0.16200
C1737       C  0.86285263  0.09057056  0.38519960    -0.16500
C1738       C  0.85909190  0.29815178  0.40030496     0.03900
C1739       C  0.84164067  0.29672627  0.43763324    -0.12300
C1740       C  0.84151722  0.26222081  0.45996854     0.01400
C1741       C  0.84879218  0.22575943  0.44193248    -0.10800
C1742       C  0.86321979  0.22224467  0.40361456     0.03900
C1743       C  0.87002016  0.25955333  0.38186761    -0.10200
H1744       H  0.83119200  0.32441965  0.45127175     0.09500
H1745       H  0.83991935  0.19893198  0.45725440     0.07000
H1746       H  0.88433716  0.25818982  0.35288233     0.06800
C1747       C  0.90331413  0.40773553  0.39435625     0.46200
H1748       H  0.92357402  0.42666394  0.41293737    -0.02800
C1749       C  0.85675428  0.36260414  0.35097111     0.46300
H1750       H  0.83695047  0.34277002  0.33277776    -0.02800
C1751       C  0.86340444  0.42928685  0.38256959    -0.16500
C1752       C  0.92353950  0.39361739  0.35405088    -0.16300
C1753       C  0.88979058  0.36892922  0.41608662    -0.16600
C1754       C  0.83608005  0.40238835  0.36418415    -0.16600
C1755       C  0.89533950  0.37531008  0.32819039    -0.16200
C1756       C  0.87053734  0.34171474  0.38948502    -0.16500
C1757       C  0.79364401  0.40857999  0.34855715     0.03900
C1758       C  0.75576025  0.40424553  0.36980902    -0.12300
C1759       C  0.71785076  0.40637920  0.34859220     0.01400
C1760       C  0.71973155  0.40906864  0.30730935    -0.10800
C1761       C  0.75594849  0.41241415  0.28651192     0.03900
C1762       C  0.79211748  0.40956263  0.30696327    -0.10200
H1763       H  0.75590312  0.39851675  0.40163051     0.09500
H1764       H  0.69202672  0.41284918  0.29164248     0.07000
H1765       H  0.82010450  0.41169347  0.29027109     0.06800
C1766       C  0.60850730  0.40920543  0.39691867     0.46200
H1767       H  0.58988571  0.42955271  0.41573562    -0.02800
C1768       C  0.65196955  0.36246353  0.35200906     0.46300
H1769       H  0.67020796  0.34257646  0.33228100    -0.02800
C1770       C  0.58689900  0.39561238  0.35804032    -0.16500
C1771       C  0.64888145  0.42931070  0.38291658    -0.16300
C1772       C  0.62025856  0.36939019  0.41862474    -0.16600
C1773       C  0.61359942  0.37636716  0.33091287    -0.16600
C1774       C  0.67473766  0.40103456  0.36468000    -0.16200
C1775       C  0.63864452  0.34192948  0.39184720    -0.16500
C1776       C  0.96625514  0.41069221  0.14565768     0.03900
C1777       C  0.50420255  0.39004129  0.14315698    -0.12300
C1778       C  0.54208634  0.41212391  0.14597773     0.01400
C1779       C  0.54023600  0.45369611  0.14721996    -0.10800
C1780       C  0.50384779  0.47357622  0.15046365     0.03900
C1781       C  0.96785769  0.45215247  0.14695362    -0.10200
H1782       H  0.50412608  0.35804810  0.13777686     0.09500
H1783       H  0.56797885  0.47073977  0.14949451     0.07000
H1784       H  0.93986368  0.46777011  0.14994311     0.06800
C1785       C  0.65081100  0.36397711  0.14559345     0.46200
H1786       H  0.66984615  0.34501452  0.16459514    -0.02800
C1787       C  0.60631807  0.40832469  0.10115294     0.46300
H1788       H  0.58722943  0.42732403  0.08209560    -0.02800
C1789       C  0.61136082  0.37849678  0.16746915    -0.16500
C1790       C  0.67261122  0.40345193  0.13101309    -0.16300
C1791       C  0.63623994  0.34203488  0.10620605    -0.16600
C1792       C  0.58499074  0.39652142  0.14025881    -0.16600
C1793       C  0.64535972  0.42976209  0.11297225    -0.16200
C1794       C  0.61817988  0.36920197  0.07984207    -0.16500
C1795       C  0.64471187  0.29812973  0.09509643     0.03900
C1796       C  0.63777803  0.26082234  0.11679387    -0.12300
C1797       C  0.64897922  0.22223902  0.09846957     0.01400
C1798       C  0.66667636  0.22370864  0.06126068    -0.10800
C1799       C  0.66684102  0.25823229  0.03893963     0.03900
C1800       C  0.65943068  0.29466727  0.05692373    -0.10200
H1801       H  0.62317097  0.26221660  0.14558748     0.09500
H1802       H  0.67723936  0.19603469  0.04767092     0.07000
H1803       H  0.66832053  0.32152839  0.04166520     0.06800
C1804       C  0.60010667  0.36975781  0.21125941     0.03900
C1805       C  0.56197932  0.35489211  0.21441190    -0.12300
C1806       C  0.54373380  0.34751768  0.25069850     0.01400
C1807       C  0.56578005  0.34773142  0.28540207    -0.10800
C1808       C  0.60305993  0.36522814  0.28716697     0.03900
C1809       C  0.62161587  0.37649864  0.24871155    -0.10200
H1810       H  0.54691503  0.34601089  0.18742428     0.09500
H1811       H  0.55195723  0.33722149  0.31297211     0.07000
H1812       H  0.65048478  0.39098918  0.24748822     0.06800
C1813       C  0.96771206  0.40147056  0.34272923     0.03900
C1814       C  0.50470816  0.39600347  0.36503949    -0.12300
C1815       C  0.54360048  0.40705493  0.34708288     0.01400
C1816       C  0.54263634  0.42402118  0.30979036    -0.10800
C1817       C  0.50843718  0.42289732  0.28688540     0.03900
C1818       C  0.97179654  0.41465123  0.30430963    -0.10200
H1819       H  0.50287038  0.38265441  0.39420433     0.09500
H1820       H  0.57042650  0.43509557  0.29666493     0.07000
H1821       H  0.94525180  0.42284732  0.28882144     0.06800
C1822       C  0.85694164  0.47178879  0.39911207     0.03900
C1823       C  0.85528805  0.47327537  0.44057681    -0.12300
C1824       C  0.85246220  0.00928572  0.46211469     0.01400
C1825       C  0.85616315  0.04566920  0.44230965    -0.10800
C1826       C  0.85724039  0.04761559  0.40074505     0.03900
C1827       C  0.85988613  0.00976064  0.37859018    -0.10200
H1828       H  0.85176379  0.44526102  0.45607980     0.09500
H1829       H  0.85429409  0.07340213  0.45942825     0.07000
H1830       H  0.86541740  0.00971646  0.34662226     0.06800
C1831       C  0.54048489  0.11875312  0.15588940     0.03900
C1832       C  0.53633426  0.10560368  0.19432774    -0.12300
C1833       C  0.49965864  0.09729918  0.21168091     0.01400
C1834       C  0.96550255  0.09616498  0.18871706    -0.10800
C1835       C  0.96460895  0.11317144  0.15144400     0.03900
C1836       C  0.50351603  0.12422084  0.13353352    -0.10200
H1837       H  0.56284598  0.09746205  0.20988696     0.09500
H1838       H  0.93767734  0.08513804  0.20181257     0.07000
H1839       H  0.50536266  0.13758939  0.10437896     0.06800
C1840       C  0.65146395  0.15760793  0.14759112     0.46200
H1841       H  0.67131428  0.17738698  0.16579326    -0.02800
C1842       C  0.60483909  0.11261184  0.10416451     0.46300
H1843       H  0.58456049  0.09373051  0.08555708    -0.02800
C1844       C  0.63755382  0.17864241  0.10918277    -0.16500
C1845       C  0.67213582  0.11786305  0.13427633    -0.16300
C1846       C  0.61293305  0.14480248  0.17041786    -0.16600
C1847       C  0.61832376  0.15150127  0.08251237    -0.16600
C1848       C  0.64476544  0.09102400  0.11587051    -0.16200
C1849       C  0.58467177  0.12658060  0.14455884    -0.16500
C1850       C  0.89570258  0.35418439  0.03536756     0.03900
C1851       C  0.89027107  0.37635288  0.49827257    -0.12300
C1852       C  0.90120405  0.35815435  0.45944864     0.01400
C1853       C  0.91805383  0.32080545  0.46057954    -0.10800
C1854       C  0.91696715  0.29808493  0.99490431     0.03900
C1855       C  0.90884418  0.31571825  0.03145436    -0.10200
H1856       H  0.87707718  0.40559057  0.49998941     0.09500
H1857       H  0.92903764  0.30750077  0.43284103     0.07000
H1858       H  0.91707883  0.30032615  0.05804031     0.06800
O1859       O  0.76484541  0.22940693  0.44003819    -0.72200
O1860       O  0.74565227  0.22503163  0.05691672    -0.73200
O1861       O  0.69783495  0.22475762  0.98679244    -0.61800
O1862       O  0.81187100  0.22993340  0.51236742    -0.70200
O1863       O  0.81081115  0.29582145  0.51229505    -0.69800
O1864       O  0.69674280  0.29066615  0.98682205    -0.61000
O1865       O  0.74365704  0.29122883  0.05914936    -0.73500
O1866       O  0.76277359  0.29560105  0.44224720    -0.72300
Cu1867     Cu  0.75520993  0.22394566  0.49874430     1.04600
Cu1868     Cu  0.75335866  0.29668378  0.50042802     1.04300
C1869       C  0.75383718  0.26254317  0.42500078     0.94000
C1870       C  0.75455061  0.25806584  0.07421826     0.93100
C1871       C  0.68281583  0.25752117  0.99892076     0.85300
C1872       C  0.82575931  0.26303044  0.50011558     0.91600
O1873       O  0.78488408  0.06938038  0.26012724    -0.72200
O1874       O  0.78923867  0.45255693  0.24064505    -0.73200
O1875       O  0.78952241  0.52290836  0.19306493    -0.61800
O1876       O  0.78436942  0.99684945  0.30696630    -0.70200
O1877       O  0.71847219  0.99690059  0.30580773    -0.69800
O1878       O  0.72360523  0.52286488  0.19187494    -0.61000
O1879       O  0.72303592  0.45030996  0.23857745    -0.73500
O1880       O  0.71867764  0.06715877  0.25799014    -0.72300
Cu1881     Cu  0.79034633  0.01069369  0.25036304     1.04600
Cu1882     Cu  0.71758827  0.00901691  0.24842438     1.04300
C1883       C  0.75173915  0.08445482  0.24916019     0.94000
C1884       C  0.75620155  0.43522769  0.24947330     0.93100
C1885       C  0.75679199  0.51081817  0.17797198     0.85300
C1886       C  0.75122790  0.00905102  0.32082790     0.91600
O1887       O  0.94469596  0.24962742  0.27955774    -0.72200
O1888       O  0.56151235  0.26886580  0.28477519    -0.73200
O1889       O  0.49130504  0.31676500  0.28387558    -0.61800
O1890       O  0.01692674  0.20272664  0.28022080    -0.70200
O1891       O  0.01744477  0.20323330  0.21431506    -0.69800
O1892       O  0.49198413  0.31732778  0.21795191    -0.61000
O1893       O  0.56422000  0.27047251  0.21858312    -0.73500
O1894       O  0.94733390  0.25142417  0.21336752    -0.72300
Cu1895     Cu  0.50330498  0.25940397  0.28543513     1.04600
Cu1896     Cu  0.50557015  0.26068491  0.21269964     1.04300
C1897       C  0.92986700  0.26049282  0.24628631     0.94000
C1898       C  0.57904861  0.25976445  0.25191436     0.93100
C1899       C  0.50373197  0.33152760  0.25111469     0.85300
C1900       C  0.00499728  0.18855313  0.24712182     0.91600
C1901       C  0.90539879  0.15528690  0.71134827     0.03900
C1902       C  0.94277050  0.17260056  0.71302647    -0.12300
C1903       C  0.96487074  0.17277186  0.74768518     0.01400
C1904       C  0.94660633  0.16552385  0.78402151    -0.10800
C1905       C  0.90834364  0.15090994  0.78724855     0.03900
C1906       C  0.88678560  0.14423420  0.74981898    -0.10200
H1907       H  0.95660352  0.18300013  0.68541830     0.09500
H1908       H  0.96174779  0.17438620  0.81096305     0.07000
H1909       H  0.85779499  0.12994148  0.75103348     0.06800
C1910       C  0.71643594  0.41468574  0.63959924     0.03900
C1911       C  0.75379678  0.39305573  0.63275301    -0.12300
C1912       C  0.79230544  0.41141062  0.64407839     0.01400
C1913       C  0.79071713  0.44855591  0.66184621    -0.10800
C1914       C  0.75615514  0.47083262  0.66195892     0.03900
C1915       C  0.71976698  0.45283648  0.65439534    -0.10200
H1916       H  0.75247643  0.36426264  0.61811422     0.09500
H1917       H  0.81835799  0.46216197  0.67246520     0.07000
H1918       H  0.69285754  0.46803379  0.66325129     0.06800
C1919       C  0.65442188  0.29958577  0.89833380     0.03900
C1920       C  0.69601271  0.29826558  0.89967790    -0.12300
C1921       C  0.71667582  0.26219194  0.90235457     0.01400
C1922       C  0.69609463  0.22585753  0.89878983    -0.10800
C1923       C  0.65479187  0.22376372  0.89609203     0.03900
C1924       C  0.63339756  0.26158916  0.89388386    -0.10200
H1925       H  0.71252821  0.32633298  0.90201765     0.09500
H1926       H  0.71197578  0.19821663  0.90235881     0.07000
H1927       H  0.60159456  0.26157736  0.88801545     0.06800
C1928       C  0.61263919  0.16622707  0.96317145     0.03900
C1929       C  0.61802507  0.14411905  0.00030333    -0.12300
C1930       C  0.60706876  0.16236149  0.53910239     0.01400
C1931       C  0.59029084  0.19975760  0.53788586    -0.10800
C1932       C  0.59134654  0.22239468  0.00349006     0.03900
C1933       C  0.59943998  0.20466921  0.96698792    -0.10200
H1934       H  0.63119117  0.11486027  0.99860857     0.09500
H1935       H  0.57926596  0.21310891  0.56558230     0.07000
H1936       H  0.59117086  0.21996485  0.94035091     0.06800
C1937       C  0.65117754  0.04854767  0.59927018     0.03900
C1938       C  0.65274535  0.04714836  0.55781740    -0.12300
C1939       C  0.65564479  0.01120695  0.53620624     0.01400
C1940       C  0.65197886  0.47476640  0.55592575    -0.10800
C1941       C  0.65096282  0.47273127  0.59748629     0.03900
C1942       C  0.64832440  0.01053643  0.61972417    -0.10200
H1943       H  0.65624641  0.07520988  0.54237829     0.09500
H1944       H  0.65386559  0.44706736  0.53874465     0.07000
H1945       H  0.64285694  0.01051454  0.65170192     0.06800
C1946       C  0.90341577  0.35996191  0.70916413     0.03900
C1947       C  0.90486471  0.31836858  0.71038529    -0.12300
C1948       C  0.90719131  0.29763723  0.74643445     0.01400
C1949       C  0.90325242  0.31812960  0.78278231    -0.10800
C1950       C  0.90071355  0.35942720  0.78496883     0.03900
C1951       C  0.89873195  0.38090183  0.74718884    -0.10200
H1952       H  0.90746811  0.30191062  0.68230493     0.09500
H1953       H  0.90641521  0.30214325  0.81041565     0.07000
H1954       H  0.89285019  0.41270445  0.74725186     0.06800
C1955       C  0.60384827  0.36321654  0.96121784     0.03900
C1956       C  0.56238341  0.36201768  0.96287573    -0.12300
C1957       C  0.54097618  0.35877059  0.99890318     0.01400
C1958       C  0.56089923  0.36211549  0.53524601    -0.10800
C1959       C  0.60248211  0.36334090  0.53701982     0.03900
C1960       C  0.62452901  0.36594270  0.99910464    -0.10200
H1961       H  0.54672059  0.35899128  0.93490476     0.09500
H1962       H  0.54387903  0.35998198  0.56302178     0.07000
H1963       H  0.65652618  0.37132244  0.99895591     0.06800
O1964       O  0.56291822  0.27449142  0.97086654    -0.72200
O1965       O  0.94904139  0.24665202  0.96153868    -0.73200
O1966       O  0.49657298  0.31760744  0.96480103    -0.61800
O1967       O  0.01572857  0.20108289  0.96723205    -0.70200
O1968       O  0.01170038  0.20274741  0.53340100    -0.69800
O1969       O  0.49235397  0.31921759  0.53097000    -0.61000
O1970       O  0.94525566  0.24579277  0.52732400    -0.73500
O1971       O  0.55907811  0.27379502  0.53666024    -0.72300
Cu1972     Cu  0.50645095  0.25974526  0.96278722     1.04600
Cu1973     Cu  0.50170714  0.26059872  0.53539837     1.04300
C1974       C  0.57548556  0.26225644  0.00417763     0.94000
C1975       C  0.93270117  0.25816661  0.49406954     0.93100
C1976       C  0.50415830  0.33490735  0.99809519     0.85300
C1977       C  0.00398606  0.18542990  0.50015391     0.91600
C1978       C  0.84789981  0.04699342  0.60785751     0.03900
C1979       C  0.87008350  0.00989058  0.61319864    -0.12300
C1980       C  0.85190742  0.47108043  0.60223790     0.01400
C1981       C  0.81443680  0.47227704  0.58560957    -0.10800
C1982       C  0.79176919  0.00666984  0.58662541     0.03900
C1983       C  0.80947120  0.04318077  0.59465928    -0.10200
H1984       H  0.89932206  0.01161610  0.62635816     0.09500
H1985       H  0.80108113  0.44456682  0.57465725     0.07000
H1986       H  0.79415622  0.06982883  0.58639353     0.06800
O1987       O  0.69497910  0.47893818  0.48758464    -0.72200
O1988       O  0.81143862  0.47558017  0.00703009    -0.73200
O1989       O  0.74031213  0.47341364  0.55453202    -0.61800
O1990       O  0.76846086  0.48146851  0.94065782    -0.70200
O1991       O  0.76789047  0.04728793  0.94394523    -0.69800
O1992       O  0.73987246  0.03924000  0.55786348    -0.61000
O1993       O  0.81336735  0.04174638  0.01085863    -0.73500
O1994       O  0.69684983  0.04511147  0.49159447    -0.72300
Cu1995     Cu  0.75354607  0.47403489  0.99711750     1.04600
Cu1996     Cu  0.75475295  0.04667710  0.00139365     1.04300
C1997       C  0.67942597  0.01191288  0.49932012     0.94000
C1998       C  0.82886018  0.00872914  0.99913846     0.93100
C1999       C  0.75193698  0.00597869  0.57071290     0.85300
C2000       C  0.75628620  0.01468402  0.92781758     0.91600
C2001       C  0.90550800  0.15691826  0.96152960     0.03900
C2002       C  0.94709583  0.15821195  0.96321317    -0.12300
C2003       C  0.96710832  0.16161584  0.49949991     0.01400
C2004       C  0.94578170  0.15839936  0.53560089    -0.10800
C2005       C  0.90430114  0.15713191  0.53736090     0.03900
C2006       C  0.88355219  0.15431200  0.49950633    -0.10200
H2007       H  0.96404850  0.16034675  0.93540034     0.09500
H2008       H  0.96151998  0.16145719  0.56353154     0.07000
H2009       H  0.85156223  0.14889264  0.49972443     0.06800
C2010       C  0.85707110  0.36252340  0.64640008     0.46200
H2011       H  0.83738470  0.34428778  0.66631625    -0.02800
C2012       C  0.90184966  0.40604524  0.59964125     0.46300
H2013       H  0.92062580  0.42468751  0.57929571    -0.02800
C2014       C  0.83593471  0.40089458  0.63261386    -0.16500
C2015       C  0.89692608  0.37580680  0.66686609    -0.16300
C2016       C  0.86967295  0.33977213  0.60780471    -0.16600
C2017       C  0.86295340  0.42765826  0.61335184    -0.16600
C2018       C  0.92366027  0.39424863  0.63941786    -0.16200
C2019       C  0.88783060  0.36564812  0.57950024    -0.16500
C2020       C  0.85367539  0.29659395  0.60259573     0.03900
C2021       C  0.81235377  0.29459248  0.60030934    -0.12300
C2022       C  0.79165010  0.25833553  0.59694337     0.01400
C2023       C  0.81222482  0.22222339  0.59960764    -0.10800
C2024       C  0.85383508  0.22079085  0.60047585     0.03900
C2025       C  0.87501344  0.25872970  0.60464190    -0.10200
H2026       H  0.79653704  0.32225026  0.59680479     0.09500
H2027       H  0.79559531  0.19420646  0.59748841     0.07000
H2028       H  0.90687096  0.25865990  0.61022151     0.06800
C2029       C  0.89968866  0.11116440  0.60169990     0.46200
H2030       H  0.91826910  0.09080434  0.58285677    -0.02800
C2031       C  0.85629197  0.15789706  0.64670208     0.46300
H2032       H  0.83808756  0.17776755  0.66648098    -0.02800
C2033       C  0.88792758  0.15097285  0.58000199    -0.16500
C2034       C  0.85935336  0.09106674  0.61581511    -0.16100
C2035       C  0.92136267  0.12476204  0.64051872    -0.16600
C2036       C  0.86954600  0.17841260  0.60682256    -0.16600
C2037       C  0.83351421  0.11930695  0.63413084    -0.16200
C2038       C  0.89473911  0.14407400  0.66767443    -0.16500
C2039       C  0.71454118  0.11154552  0.64999940     0.03900
C2040       C  0.71595038  0.11019097  0.69158562    -0.12300
C2041       C  0.75207415  0.10731726  0.71213475     0.01400
C2042       C  0.78837225  0.11087509  0.69146757    -0.10800
C2043       C  0.79036660  0.11389113  0.65019830     0.03900
C2044       C  0.75249452  0.11611925  0.62890769    -0.10200
H2045       H  0.68791225  0.10787740  0.70816983     0.09500
H2046       H  0.81605650  0.10707120  0.70721824     0.07000
H2047       H  0.75243747  0.12207573  0.59712851     0.06800
C2048       C  0.54198874  0.10976092  0.85291039     0.03900
C2049       C  0.50406695  0.13045369  0.85546968    -0.12300
C2050       C  0.96614800  0.10843989  0.85259827     0.01400
C2051       C  0.96792851  0.06686191  0.85128126    -0.10800
C2052       C  0.50427884  0.04691152  0.84804653     0.03900
C2053       C  0.54032134  0.06828672  0.85153055    -0.10200
H2054       H  0.50418728  0.16243580  0.86090787     0.09500
H2055       H  0.94015816  0.04987199  0.84897797     0.07000
H2056       H  0.56828893  0.05262589  0.84851818     0.06800
O2057       O  0.53844002  0.00258968  0.80679179    -0.72200
O2058       O  0.53573353  0.52206106  0.69035732    -0.73200
O2059       O  0.53182812  0.06898049  0.76403271    -0.61800
O2060       O  0.54192307  0.45528760  0.73572179    -0.70200
O2061       O  0.97614368  0.45128306  0.73465048    -0.69800
O2062       O  0.96605144  0.06500756  0.76286364    -0.61000
O2063       O  0.96955620  0.51762200  0.69189797    -0.73500
O2064       O  0.97227052  0.99827378  0.80836845    -0.72300
Cu2065     Cu  0.54029086  0.01264367  0.74899076     1.04600
Cu2066     Cu  0.96768642  0.00763097  0.74968804     1.04300
C2067       C  0.50512958  0.01011446  0.82409711     0.94000
C2068       C  0.50289918  0.51023612  0.67458066     0.93100
C2069       C  0.49859463  0.08146972  0.75154687     0.85300
C2070       C  0.50940978  0.43878440  0.74705060     0.91600
C2071       C  0.60768503  0.16071133  0.71362458     0.03900
C2072       C  0.60560862  0.20203245  0.71570031    -0.12300
C2073       C  0.60174772  0.22264967  0.75195563     0.01400
C2074       C  0.60391844  0.20201069  0.78806401    -0.10800
C2075       C  0.60498320  0.16040218  0.78940542     0.03900
C2076       C  0.60947055  0.13930582  0.75144896    -0.10200
H2077       H  0.60262612  0.21793788  0.68807298     0.09500
H2078       H  0.60141858  0.21857703  0.81609283     0.07000
H2079       H  0.61509300  0.10745675  0.75148245     0.06800
C2080       C  0.66031547  0.47341712  0.89083414     0.03900
C2081       C  0.63808384  0.01049274  0.88547962    -0.12300
C2082       C  0.65622576  0.04932373  0.89641236     0.01400
C2083       C  0.69367411  0.04820783  0.91306578    -0.10800
C2084       C  0.71640621  0.01387133  0.91201659     0.03900
C2085       C  0.69877433  0.47731653  0.90396421    -0.10200
H2086       H  0.60884985  0.00874827  0.87231621     0.09500
H2087       H  0.70700254  0.07595999  0.92395993     0.07000
H2088       H  0.71417778  0.45070996  0.91218447     0.06800
C2089       C  0.60641924  0.11437839  0.89891896     0.46200
H2090       H  0.58762412  0.09576928  0.91927776    -0.02800
C2091       C  0.65127761  0.15783620  0.85215387     0.46300
H2092       H  0.67099787  0.17605246  0.83225040    -0.02800
C2093       C  0.64523725  0.09269354  0.88515489    -0.16500
C2094       C  0.58460235  0.12620190  0.85916485    -0.16300
C2095       C  0.62057025  0.15472135  0.91906873    -0.16600
C2096       C  0.67229381  0.11936948  0.86581039    -0.16600
C2097       C  0.61136313  0.14464331  0.83173413    -0.16200
C2098       C  0.63880503  0.18057154  0.89079461    -0.16500
C2099       C  0.79175621  0.10552010  0.85853415     0.03900
C2100       C  0.78837226  0.06723835  0.84399495    -0.12300
C2101       C  0.75195419  0.04917047  0.83661730     0.01400
C2102       C  0.71739832  0.07145476  0.83672522    -0.10800
C2103       C  0.71586836  0.10872526  0.85425755     0.03900
C2104       C  0.75439826  0.12718657  0.86530221    -0.10200
H2105       H  0.81525078  0.05199939  0.83511832     0.09500
H2106       H  0.68972972  0.05779283  0.82625383     0.07000
H2107       H  0.75569752  0.15612368  0.87968630     0.06800
C2108       C  0.85733853  0.15648677  0.85281483     0.46200
H2109       H  0.83832425  0.17546733  0.83380816    -0.02800
C2110       C  0.90178237  0.11210238  0.89725334     0.46300
H2111       H  0.92085285  0.09308319  0.91630802    -0.02800
C2112       C  0.89697244  0.14221192  0.83104634    -0.16500
C2113       C  0.87164164  0.17831621  0.89239891    -0.16300
C2114       C  0.83559856  0.11684081  0.86710875    -0.16600
C2115       C  0.92325629  0.12411323  0.85828059    -0.16600
C2116       C  0.88972993  0.15110363  0.91870587    -0.16200
C2117       C  0.86285262  0.09057052  0.88519958    -0.16500
C2118       C  0.85909183  0.29815180  0.90030493     0.03900
C2119       C  0.84164052  0.29672643  0.93763328    -0.12300
C2120       C  0.84151717  0.26222083  0.95996850     0.01400
C2121       C  0.84879214  0.22575944  0.94193248    -0.10800
C2122       C  0.86321981  0.22224466  0.90361457     0.03900
C2123       C  0.87002006  0.25955336  0.88186770    -0.10200
H2124       H  0.83119210  0.32441916  0.95127145     0.09500
H2125       H  0.83991941  0.19893203  0.95725435     0.07000
H2126       H  0.88433730  0.25818987  0.85288194     0.06800
C2127       C  0.90331413  0.40773554  0.89435629     0.46200
H2128       H  0.92357408  0.42666405  0.91293759    -0.02800
C2129       C  0.85675446  0.36260423  0.85097112     0.46300
H2130       H  0.83695044  0.34276984  0.83277746    -0.02800
C2131       C  0.86340454  0.42928691  0.88256954    -0.16500
C2132       C  0.92353962  0.39361741  0.85405100    -0.16300
C2133       C  0.88979051  0.36892929  0.91608666    -0.16600
C2134       C  0.83608017  0.40238840  0.86418405    -0.16600
C2135       C  0.89533965  0.37531009  0.82819043    -0.16200
C2136       C  0.87053733  0.34171476  0.88948502    -0.16500
C2137       C  0.79364413  0.40858003  0.84855712     0.03900
C2138       C  0.75576040  0.40424552  0.86980900    -0.12300
C2139       C  0.71785089  0.40637913  0.84859219     0.01400
C2140       C  0.71973169  0.40906865  0.80730936    -0.10800
C2141       C  0.75594861  0.41241419  0.78651192     0.03900
C2142       C  0.79211761  0.40956267  0.80696325    -0.10200
H2143       H  0.75590327  0.39851678  0.90163052     0.09500
H2144       H  0.69202675  0.41284924  0.79164242     0.07000
H2145       H  0.82010457  0.41169352  0.79027109     0.06800
C2146       C  0.60850745  0.40920547  0.89691867     0.46200
H2147       H  0.58988588  0.42955275  0.91573564    -0.02800
C2148       C  0.65196968  0.36246353  0.85200899     0.46300
H2149       H  0.67020795  0.34257666  0.83228107    -0.02800
C2150       C  0.58689910  0.39561242  0.85804035    -0.16500
C2151       C  0.64888160  0.42931071  0.88291656    -0.16300
C2152       C  0.62025873  0.36939023  0.91862471    -0.16600
C2153       C  0.61359950  0.37636722  0.83091287    -0.16600
C2154       C  0.67473778  0.40103457  0.86467998    -0.16200
C2155       C  0.63864464  0.34192951  0.89184714    -0.16500
C2156       C  0.96625518  0.41069225  0.64565769     0.03900
C2157       C  0.50420257  0.39004126  0.64315700    -0.12300
C2158       C  0.54208643  0.41212382  0.64597778     0.01400
C2159       C  0.54023613  0.45369601  0.64721999    -0.10800
C2160       C  0.50384797  0.47357620  0.65046363     0.03900
C2161       C  0.96785781  0.45215251  0.64695359    -0.10200
H2162       H  0.50412602  0.35804810  0.63777691     0.09500
H2163       H  0.56797918  0.47073974  0.64949460     0.07000
H2164       H  0.93986380  0.46777021  0.64994306     0.06800
C2165       C  0.65081113  0.36397696  0.64559353     0.46200
H2166       H  0.66984632  0.34501431  0.66459524    -0.02800
C2167       C  0.60631818  0.40832455  0.60115297     0.46300
H2168       H  0.58722971  0.42732372  0.58209579    -0.02800
C2169       C  0.61136094  0.37849659  0.66746920    -0.16500
C2170       C  0.67261136  0.40345179  0.63101318    -0.16300
C2171       C  0.63624006  0.34203476  0.60620615    -0.16600
C2172       C  0.58499083  0.39652123  0.64025887    -0.16600
C2173       C  0.64535987  0.42976193  0.61297233    -0.16200
C2174       C  0.61818003  0.36920182  0.57984213    -0.16500
C2175       C  0.64471201  0.29812965  0.59509656     0.03900
C2176       C  0.63777813  0.26082231  0.61679422    -0.12300
C2177       C  0.64897933  0.22223896  0.59846961     0.01400
C2178       C  0.66667637  0.22370876  0.56126082    -0.10800
C2179       C  0.66684110  0.25823227  0.53893975     0.03900
C2180       C  0.65943069  0.29466739  0.55692376    -0.10200
H2181       H  0.62317169  0.26221656  0.64558675     0.09500
H2182       H  0.67723963  0.19603417  0.54767068     0.07000
H2183       H  0.66832025  0.32152768  0.54166566     0.06800
C2184       C  0.60010682  0.36975765  0.71125944     0.03900
C2185       C  0.56197944  0.35489204  0.71441193    -0.12300
C2186       C  0.54373395  0.34751758  0.75069851     0.01400
C2187       C  0.56578010  0.34773142  0.78540218    -0.10800
C2188       C  0.60306002  0.36522819  0.78716699     0.03900
C2189       C  0.62161599  0.37649860  0.74871157    -0.10200
H2190       H  0.54691512  0.34601089  0.68742432     0.09500
H2191       H  0.55195745  0.33722172  0.81297182     0.07000
H2192       H  0.65048486  0.39098917  0.74748824     0.06800
C2193       C  0.96771215  0.40147060  0.84272934     0.03900
C2194       C  0.50470818  0.39600354  0.86503967    -0.12300
C2195       C  0.54360055  0.40705495  0.84708297     0.01400
C2196       C  0.54263642  0.42402121  0.80979045    -0.10800
C2197       C  0.50843727  0.42289737  0.78688551     0.03900
C2198       C  0.97179673  0.41465121  0.80430982    -0.10200
H2199       H  0.50287029  0.38265470  0.89420422     0.09500
H2200       H  0.57042653  0.43509555  0.79666501     0.07000
H2201       H  0.94525126  0.42284746  0.78882114     0.06800
C2202       C  0.85694173  0.47178881  0.89911202     0.03900
C2203       C  0.85528821  0.47327551  0.94057669    -0.12300
C2204       C  0.85246228  0.00928566  0.96211468     0.01400
C2205       C  0.85616306  0.04566896  0.94230953    -0.10800
C2206       C  0.85724031  0.04761559  0.90074504     0.03900
C2207       C  0.85988621  0.00976061  0.87859010    -0.10200
H2208       H  0.85176392  0.44526070  0.95607998     0.09500
H2209       H  0.85429382  0.07340286  0.95942878     0.07000
H2210       H  0.86541746  0.00971645  0.84662234     0.06800
C2211       C  0.54048497  0.11875299  0.65588941     0.03900
C2212       C  0.53633427  0.10560369  0.69432779    -0.12300
C2213       C  0.49965859  0.09729922  0.71168094     0.01400
C2214       C  0.96550255  0.09616498  0.68871705    -0.10800
C2215       C  0.96460905  0.11317147  0.65144397     0.03900
C2216       C  0.50351614  0.12422083  0.63353353    -0.10200
H2217       H  0.56284591  0.09746212  0.70988704     0.09500
H2218       H  0.93767754  0.08513812  0.70181244     0.07000
H2219       H  0.50536281  0.13758943  0.60437901     0.06800
C2220       C  0.65146410  0.15760792  0.64759122     0.46200
H2221       H  0.67131415  0.17738676  0.66579314    -0.02800
C2222       C  0.60483926  0.11261181  0.60416458     0.46300
H2223       H  0.58456047  0.09373032  0.58555695    -0.02800
C2224       C  0.63755395  0.17864234  0.60918282    -0.16500
C2225       C  0.67213591  0.11786301  0.63427645    -0.16300
C2226       C  0.61293316  0.14480232  0.67041792    -0.16600
C2227       C  0.61832390  0.15150120  0.58251240    -0.16600
C2228       C  0.64476557  0.09102399  0.61587057    -0.16200
C2229       C  0.58467188  0.12658045  0.64455889    -0.16500
C2230       C  0.89570271  0.35418440  0.53536756     0.03900
C2231       C  0.89027094  0.37635291  0.99827260    -0.12300
C2232       C  0.90120391  0.35815440  0.95944866     0.01400
C2233       C  0.91805370  0.32080559  0.96057959    -0.10800
C2234       C  0.91696718  0.29808481  0.49490435     0.03900
C2235       C  0.90884431  0.31571822  0.53145438    -0.10200
H2236       H  0.87707706  0.40559062  0.99998942     0.09500
H2237       H  0.92903762  0.30750077  0.93284074     0.07000
H2238       H  0.91707891  0.30032616  0.55804031     0.06800
O2239       O  0.76484550  0.22940696  0.94003807    -0.72200
O2240       O  0.74565218  0.22503175  0.55691682    -0.73200
O2241       O  0.69783488  0.22475763  0.48679252    -0.61800
O2242       O  0.81187097  0.22993332  0.01236725    -0.70200
O2243       O  0.81081104  0.29582139  0.01229505    -0.69800
O2244       O  0.69674280  0.29066614  0.48682208    -0.61000
O2245       O  0.74365714  0.29122896  0.55914933    -0.73500
O2246       O  0.76277349  0.29560109  0.94224723    -0.72300
Cu2247     Cu  0.75521000  0.22394553  0.99874415     1.04600
Cu2248     Cu  0.75335858  0.29668373  0.00042803     1.04300
C2249       C  0.75383723  0.26254320  0.92500071     0.94000
C2250       C  0.75455067  0.25806600  0.57421826     0.93100
C2251       C  0.68281582  0.25752121  0.49892086     0.85300
C2252       C  0.82575926  0.26303043  0.00011554     0.91600
O2253       O  0.78488426  0.06938040  0.76012724    -0.72200
O2254       O  0.78923883  0.45255697  0.74064506    -0.73200
O2255       O  0.78952242  0.52290842  0.69306493    -0.61800
O2256       O  0.78436954  0.99684948  0.80696630    -0.70200
O2257       O  0.71847232  0.99690063  0.80580760    -0.69800
O2258       O  0.72360525  0.52286492  0.69187495    -0.61000
O2259       O  0.72303608  0.45031000  0.73857745    -0.73500
O2260       O  0.71867782  0.06715868  0.75799014    -0.72300
Cu2261     Cu  0.79034648  0.01069373  0.75036301     1.04600
Cu2262     Cu  0.71758843  0.00901691  0.74842434     1.04300
C2263       C  0.75173931  0.08445479  0.74916024     0.94000
C2264       C  0.75620171  0.43522774  0.74947331     0.93100
C2265       C  0.75679198  0.51081822  0.67797197     0.85300
C2266       C  0.75122795  0.00905105  0.82082785     0.91600
O2267       O  0.94469603  0.24962737  0.77955774    -0.72200
O2268       O  0.56151253  0.26886577  0.78477521    -0.73200
O2269       O  0.49130518  0.31676491  0.78387559    -0.61800
O2270       O  0.01692684  0.20272660  0.78022081    -0.70200
O2271       O  0.01744491  0.20323334  0.71431507    -0.69800
O2272       O  0.49198426  0.31732776  0.71795195    -0.61000
O2273       O  0.56422019  0.27047252  0.71858318    -0.73500
O2274       O  0.94733407  0.25142420  0.71336752    -0.72300
Cu2275     Cu  0.50330513  0.25940389  0.78543515     1.04600
Cu2276     Cu  0.50557030  0.26068493  0.71269979     1.04300
C2277       C  0.92986715  0.26049283  0.74628630     0.94000
C2278       C  0.57904880  0.25976439  0.75191438     0.93100
C2279       C  0.50373212  0.33152752  0.75111473     0.85300
C2280       C  0.00499744  0.18855311  0.74712181     0.91600
C2281       C  0.90539760  0.65528710  0.21134815     0.03900
C2282       C  0.94276942  0.67260063  0.21302621    -0.12300
C2283       C  0.96486966  0.67277172  0.24768502     0.01400
C2284       C  0.94660519  0.66552368  0.28402125    -0.10800
C2285       C  0.90834249  0.65090991  0.28724839     0.03900
C2286       C  0.88678424  0.64423435  0.24981882    -0.10200
H2287       H  0.95660221  0.68299996  0.18541862     0.09500
H2288       H  0.96174687  0.67438603  0.31096309     0.07000
H2289       H  0.85779413  0.62994218  0.25103331     0.06800
C2290       C  0.71643541  0.91468557  0.13959870     0.03900
C2291       C  0.75379629  0.89305565  0.13275236    -0.12300
C2292       C  0.79230495  0.91141072  0.14407762     0.01400
C2293       C  0.79071647  0.94855596  0.16184536    -0.10800
C2294       C  0.75615448  0.97083256  0.16195830     0.03900
C2295       C  0.71976632  0.95283624  0.15439503    -0.10200
H2296       H  0.75247597  0.86426264  0.11811375     0.09500
H2297       H  0.81835764  0.96216224  0.17246449     0.07000
H2298       H  0.69285700  0.96803331  0.16325124     0.06800
C2299       C  0.65442069  0.79958554  0.39833372     0.03900
C2300       C  0.69601144  0.79826519  0.39967789    -0.12300
C2301       C  0.71667458  0.76219162  0.40235474     0.01400
C2302       C  0.69609328  0.72585728  0.39879024    -0.10800
C2303       C  0.65479060  0.72376354  0.39609229     0.03900
C2304       C  0.63339632  0.76158896  0.39388388    -0.10200
H2305       H  0.71252728  0.82633301  0.40201745     0.09500
H2306       H  0.71197458  0.69821603  0.40235952     0.07000
H2307       H  0.60159332  0.76157716  0.38801536     0.06800
C2308       C  0.61263793  0.66622686  0.46317166     0.03900
C2309       C  0.61802394  0.64411880  0.50030346    -0.12300
C2310       C  0.60706743  0.66236135  0.03910253     0.01400
C2311       C  0.59028953  0.69975750  0.03788607    -0.10800
C2312       C  0.59134541  0.72239436  0.50349050     0.03900
C2313       C  0.59943885  0.70466905  0.46698825    -0.10200
H2314       H  0.63119018  0.61485997  0.49860859     0.09500
H2315       H  0.57926483  0.71310875  0.06558234     0.07000
H2316       H  0.59116988  0.71996485  0.44035137     0.06800
C2317       C  0.65117689  0.54854785  0.09927035     0.03900
C2318       C  0.65274505  0.54714851  0.05781750    -0.12300
C2319       C  0.65564466  0.51120710  0.03620638     0.01400
C2320       C  0.65197860  0.97476617  0.05592512    -0.10800
C2321       C  0.65096257  0.97273121  0.09748578     0.03900
C2322       C  0.64832412  0.51053660  0.11972410    -0.10200
H2323       H  0.65624614  0.57521010  0.04237839     0.09500
H2324       H  0.65386508  0.94706795  0.03874453     0.07000
H2325       H  0.64285654  0.51051470  0.15170310     0.06800
C2326       C  0.90341525  0.85996168  0.20916345     0.03900
C2327       C  0.90486394  0.81836841  0.21038475    -0.12300
C2328       C  0.90719072  0.79763709  0.24643383     0.01400
C2329       C  0.90325193  0.81812949  0.28278171    -0.10800
C2330       C  0.90071308  0.85942707  0.28496817     0.03900
C2331       C  0.89873163  0.88090170  0.24718817    -0.10200
H2332       H  0.90746715  0.80191009  0.18230395     0.09500
H2333       H  0.90641477  0.80214320  0.31041503     0.07000
H2334       H  0.89285004  0.91270424  0.24725112     0.06800
C2335       C  0.60384743  0.86321640  0.46121758     0.03900
C2336       C  0.56238258  0.86201761  0.46287579    -0.12300
C2337       C  0.54097547  0.85877046  0.49890325     0.01400
C2338       C  0.56089869  0.86211539  0.03524573    -0.10800
C2339       C  0.60248152  0.86334088  0.03701939     0.03900
C2340       C  0.62452809  0.86594254  0.49910431    -0.10200
H2341       H  0.54671927  0.85899131  0.43490428     0.09500
H2342       H  0.54387858  0.85998191  0.06302147     0.07000
H2343       H  0.65652633  0.87132250  0.49895547     0.06800
O2344       O  0.56291729  0.77449132  0.47086727    -0.72200
O2345       O  0.94904051  0.74665196  0.46153852    -0.73200
O2346       O  0.49657210  0.81760744  0.46480130    -0.61800
O2347       O  0.01572752  0.70108297  0.46723233    -0.70200
O2348       O  0.01169905  0.70274769  0.03340106    -0.69800
O2349       O  0.49235316  0.81921796  0.03096986    -0.61000
O2350       O  0.94525455  0.74579317  0.02732359    -0.73500
O2351       O  0.55907699  0.77379496  0.03666052    -0.72300
Cu2352     Cu  0.50644997  0.75974523  0.46278749     1.04600
Cu2353     Cu  0.50170603  0.76059898  0.03539837     1.04300
C2354       C  0.57548457  0.76225614  0.50417829     0.94000
C2355       C  0.93270022  0.75816701  0.99406909     0.93100
C2356       C  0.50415752  0.83490730  0.49809545     0.85300
C2357       C  0.00398484  0.68543020  0.00015400     0.91600
C2358       C  0.84789916  0.54699323  0.10785772     0.03900
C2359       C  0.87008305  0.50989047  0.11319870    -0.12300
C2360       C  0.85190743  0.97108065  0.10223778     0.01400
C2361       C  0.81443693  0.97227753  0.08560936    -0.10800
C2362       C  0.79176882  0.50666927  0.08662553     0.03900
C2363       C  0.80947056  0.54318026  0.09465959    -0.10200
H2364       H  0.89932211  0.51161611  0.12635846     0.09500
H2365       H  0.80108117  0.94456741  0.07465695     0.07000
H2366       H  0.79415518  0.56982842  0.08639400     0.06800
O2367       O  0.69497950  0.97893777  0.98758474    -0.72200
O2368       O  0.81143852  0.97558002  0.50702996    -0.73200
O2369       O  0.74031229  0.97341418  0.05453232    -0.61800
O2370       O  0.76846047  0.98146757  0.44065789    -0.70200
O2371       O  0.76788996  0.54728897  0.44394551    -0.69800
O2372       O  0.73987203  0.53923931  0.05786351    -0.61000
O2373       O  0.81336689  0.54174697  0.51085878    -0.73500
O2374       O  0.69684960  0.54511165  0.99159451    -0.72300
Cu2375     Cu  0.75354601  0.97403477  0.49711769     1.04600
Cu2376     Cu  0.75475245  0.54667757  0.50139396     1.04300
C2377       C  0.67942582  0.51191298  0.99932017     0.94000
C2378       C  0.82885988  0.50872972  0.49913876     0.93100
C2379       C  0.75193670  0.50597799  0.07071281     0.85300
C2380       C  0.75628598  0.51468505  0.42781771     0.91600
C2381       C  0.90550704  0.65691848  0.46152950     0.03900
C2382       C  0.94709483  0.65821214  0.46321319    -0.12300
C2383       C  0.96710721  0.66161606  0.99949983     0.01400
C2384       C  0.94578069  0.65839954  0.03560102    -0.10800
C2385       C  0.90430005  0.65713197  0.03736077     0.03900
C2386       C  0.88355112  0.65431198  0.99950624    -0.10200
H2387       H  0.96404765  0.66034704  0.43540028     0.09500
H2388       H  0.96151833  0.66145726  0.06353067     0.07000
H2389       H  0.85156133  0.64889262  0.99972429     0.06800
C2390       C  0.85707061  0.86252343  0.14639933     0.46200
H2391       H  0.83738389  0.84428750  0.16631572    -0.02800
C2392       C  0.90184926  0.90604535  0.09964077     0.46300
H2393       H  0.92062535  0.92468764  0.07929539    -0.02800
C2394       C  0.83593429  0.90089469  0.13261336    -0.16500
C2395       C  0.89692561  0.87580656  0.16686542    -0.16300
C2396       C  0.86967221  0.83977229  0.10780390    -0.16600
C2397       C  0.86295315  0.92765841  0.11335155    -0.16600
C2398       C  0.92365985  0.89424847  0.13941727    -0.16200
C2399       C  0.88783000  0.86564839  0.07949958    -0.16500
C2400       C  0.85367456  0.79659412  0.10259478     0.03900
C2401       C  0.81235288  0.79459282  0.10030821    -0.12300
C2402       C  0.79164919  0.75833577  0.09694270     0.01400
C2403       C  0.81222383  0.72222362  0.09960736    -0.10800
C2404       C  0.85383408  0.72079096  0.10047547     0.03900
C2405       C  0.87501270  0.75872983  0.10464113    -0.10200
H2406       H  0.79653662  0.82225001  0.09680332     0.09500
H2407       H  0.79559427  0.69420673  0.09748850     0.07000
H2408       H  0.90686944  0.75865999  0.11022050     0.06800
C2409       C  0.89968758  0.61116452  0.10169990     0.46200
H2410       H  0.91826835  0.59080415  0.08285656    -0.02800
C2411       C  0.85629087  0.65789711  0.14670182     0.46300
H2412       H  0.83808614  0.67776789  0.16648092    -0.02800
C2413       C  0.88792651  0.65097286  0.08000183    -0.16500
C2414       C  0.85935243  0.59106670  0.11581509    -0.16100
C2415       C  0.92136156  0.62476216  0.14051868    -0.16600
C2416       C  0.86954491  0.67841268  0.10682234    -0.16600
C2417       C  0.83351316  0.61930695  0.13413071    -0.16200
C2418       C  0.89473793  0.64407417  0.16767431    -0.16500
C2419       C  0.71454024  0.61154590  0.14999946     0.03900
C2420       C  0.71594935  0.61019143  0.19158576    -0.12300
C2421       C  0.75207324  0.60731739  0.21213478     0.01400
C2422       C  0.78837128  0.61087477  0.19146749    -0.10800
C2423       C  0.79036563  0.61389105  0.15019824     0.03900
C2424       C  0.75249356  0.61611942  0.12890769    -0.10200
H2425       H  0.68791182  0.60787816  0.20816964     0.09500
H2426       H  0.81605571  0.60707046  0.20721815     0.07000
H2427       H  0.75243660  0.62207585  0.09712845     0.06800
C2428       C  0.54198760  0.60976077  0.35291080     0.03900
C2429       C  0.50406584  0.63045365  0.35546963    -0.12300
C2430       C  0.96614690  0.60843985  0.35259822     0.01400
C2431       C  0.96792731  0.56686188  0.35128155    -0.10800
C2432       C  0.50427769  0.54691141  0.34804740     0.03900
C2433       C  0.54032010  0.56828661  0.35153177    -0.10200
H2434       H  0.50418620  0.66243568  0.36090751     0.09500
H2435       H  0.94015698  0.54987199  0.34897808     0.07000
H2436       H  0.56828790  0.55262550  0.34852009     0.06800
O2437       O  0.53843941  0.50259015  0.30679261    -0.72200
O2438       O  0.53573339  0.02206083  0.19035660    -0.73200
O2439       O  0.53182697  0.56898097  0.26403325    -0.61800
O2440       O  0.54192257  0.95528705  0.23572070    -0.70200
O2441       O  0.97614297  0.95128314  0.23464990    -0.69800
O2442       O  0.96605034  0.56500728  0.26286380    -0.61000
O2443       O  0.96955606  0.01762221  0.19189749    -0.73500
O2444       O  0.97226981  0.49827379  0.30836878    -0.72300
Cu2445     Cu  0.54029062  0.51264415  0.24899160     1.04600
Cu2446     Cu  0.96768617  0.50763082  0.24968839     1.04300
C2447       C  0.50512878  0.51011457  0.32409773     0.94000
C2448       C  0.50289890  0.01023613  0.17458005     0.93100
C2449       C  0.49859335  0.58146965  0.25154703     0.85300
C2450       C  0.50940924  0.93878414  0.24704973     0.91600
C2451       C  0.60768394  0.66071144  0.21362482     0.03900
C2452       C  0.60560814  0.70203264  0.21570059    -0.12300
C2453       C  0.60174722  0.72264976  0.25195597     0.01400
C2454       C  0.60391767  0.70201076  0.28806433    -0.10800
C2455       C  0.60498204  0.66040220  0.28940568     0.03900
C2456       C  0.60946914  0.63930605  0.25144919    -0.10200
H2457       H  0.60262608  0.71793809  0.18807348     0.09500
H2458       H  0.60141788  0.71857702  0.31609310     0.07000
H2459       H  0.61509150  0.60745599  0.25148267     0.06800
C2460       C  0.66031504  0.97341692  0.39083407     0.03900
C2461       C  0.63808369  0.51049274  0.38547968    -0.12300
C2462       C  0.65622520  0.54932384  0.39641243     0.01400
C2463       C  0.69367358  0.54820837  0.41306604    -0.10800
C2464       C  0.71640594  0.51387198  0.41201682     0.03900
C2465       C  0.69877387  0.97731607  0.40396425    -0.10200
H2466       H  0.60884946  0.50874800  0.37231610     0.09500
H2467       H  0.70700151  0.57596015  0.42396002     0.07000
H2468       H  0.71417721  0.95070915  0.41218466     0.06800
C2469       C  0.60641817  0.61437817  0.39891921     0.46200
H2470       H  0.58762347  0.59576927  0.41927771    -0.02800
C2471       C  0.65127648  0.65783637  0.35215396     0.46300
H2472       H  0.67099608  0.67605216  0.33225112    -0.02800
C2473       C  0.64523638  0.59269360  0.38515498    -0.16500
C2474       C  0.58460125  0.62620176  0.35916508    -0.16300
C2475       C  0.62056906  0.65472124  0.41906893    -0.16600
C2476       C  0.67229274  0.61936967  0.36581055    -0.16600
C2477       C  0.61136190  0.64464326  0.33173439    -0.16200
C2478       C  0.63880371  0.68057145  0.39079486    -0.16500
C2479       C  0.79175514  0.60552035  0.35853443     0.03900
C2480       C  0.78837106  0.56723853  0.34399556    -0.12300
C2481       C  0.75195300  0.54917076  0.33661760     0.01400
C2482       C  0.71739730  0.57145523  0.33672519    -0.10800
C2483       C  0.71586731  0.60872565  0.35425754     0.03900
C2484       C  0.75439722  0.62718697  0.36530224    -0.10200
H2485       H  0.81524981  0.55199920  0.33511920     0.09500
H2486       H  0.68972844  0.55779320  0.32625356     0.07000
H2487       H  0.75569647  0.65612414  0.37968614     0.06800
C2488       C  0.85733742  0.65648703  0.35281472     0.46200
H2489       H  0.83832356  0.67546711  0.33380851    -0.02800
C2490       C  0.90178152  0.61210258  0.39725333     0.46300
H2491       H  0.92085173  0.59308379  0.41630774    -0.02800
C2492       C  0.89697134  0.64221193  0.33104620    -0.16500
C2493       C  0.87164079  0.67831649  0.39239880    -0.16300
C2494       C  0.83559757  0.61684099  0.36710891    -0.16600
C2495       C  0.92325520  0.62411329  0.35828042    -0.16600
C2496       C  0.88972907  0.65110396  0.41870572    -0.16200
C2497       C  0.86285171  0.59057073  0.38519966    -0.16500
C2498       C  0.85909107  0.79815210  0.40030449     0.03900
C2499       C  0.84163974  0.79672678  0.43763266    -0.12300
C2500       C  0.84151633  0.76222152  0.45996818     0.01400
C2501       C  0.84879158  0.72575995  0.44193242    -0.10800
C2502       C  0.86321905  0.72224502  0.40361444     0.03900
C2503       C  0.87001933  0.75955356  0.38186712    -0.10200
H2504       H  0.83119095  0.82442042  0.45127111     0.09500
H2505       H  0.83991903  0.69893295  0.45725435     0.07000
H2506       H  0.88433584  0.75818996  0.35288260     0.06800
C2507       C  0.90331356  0.90773548  0.39435543     0.46200
H2508       H  0.92357402  0.92666445  0.41293705    -0.02800
C2509       C  0.85675393  0.86260422  0.35097048     0.46300
H2510       H  0.83694983  0.84276969  0.33277682    -0.02800
C2511       C  0.86340406  0.92928690  0.38256877    -0.16500
C2512       C  0.92353910  0.89361732  0.35405027    -0.16300
C2513       C  0.88979003  0.86892941  0.41608600    -0.16600
C2514       C  0.83607959  0.90238834  0.36418338    -0.16600
C2515       C  0.89533911  0.87530999  0.32818973    -0.16200
C2516       C  0.87053677  0.84171487  0.38948438    -0.16500
C2517       C  0.79364346  0.90857983  0.34855657     0.03900
C2518       C  0.75575975  0.90424518  0.36980878    -0.12300
C2519       C  0.71785018  0.90637890  0.34859186     0.01400
C2520       C  0.71973087  0.90906855  0.30730906    -0.10800
C2521       C  0.75594778  0.91241400  0.28651149     0.03900
C2522       C  0.79211674  0.90956233  0.30696279    -0.10200
H2523       H  0.75590270  0.89851649  0.40162920     0.09500
H2524       H  0.69202602  0.91284918  0.29164225     0.07000
H2525       H  0.82010408  0.91169307  0.29027026     0.06800
C2526       C  0.60850666  0.90920537  0.39691831     0.46200
H2527       H  0.58988524  0.92955243  0.41573509    -0.02800
C2528       C  0.65196884  0.86246338  0.35200882     0.46300
H2529       H  0.67020755  0.84257597  0.33228049    -0.02800
C2530       C  0.58689847  0.89561233  0.35803982    -0.16500
C2531       C  0.64888094  0.92931053  0.38291631    -0.16300
C2532       C  0.62025777  0.86939005  0.41862438    -0.16600
C2533       C  0.61359896  0.87636710  0.33091242    -0.16600
C2534       C  0.67473710  0.90103430  0.36467977    -0.16200
C2535       C  0.63864361  0.84192926  0.39184684    -0.16500
C2536       C  0.96625472  0.91069214  0.14565720     0.03900
C2537       C  0.50420210  0.89004123  0.14315659    -0.12300
C2538       C  0.54208589  0.91212381  0.14597720     0.01400
C2539       C  0.54023573  0.95369612  0.14721910    -0.10800
C2540       C  0.50384742  0.97357615  0.15046304     0.03900
C2541       C  0.96785731  0.95215241  0.14695329    -0.10200
H2542       H  0.50412560  0.85804781  0.13777659     0.09500
H2543       H  0.56797790  0.97073932  0.14949331     0.07000
H2544       H  0.93986327  0.96777002  0.14994314     0.06800
C2545       C  0.65081043  0.86397695  0.14559294     0.46200
H2546       H  0.66984576  0.84501397  0.16459489    -0.02800
C2547       C  0.60631773  0.90832460  0.10115250     0.46300
H2548       H  0.58722905  0.92732410  0.08209508    -0.02800
C2549       C  0.61136036  0.87849666  0.16746869    -0.16500
C2550       C  0.67261085  0.90345165  0.13101260    -0.16300
C2551       C  0.63623938  0.84203472  0.10620561    -0.16600
C2552       C  0.58499029  0.89652136  0.14025834    -0.16600
C2553       C  0.64535942  0.92976190  0.11297177    -0.16200
C2554       C  0.61817945  0.86920188  0.07984162    -0.16500
C2555       C  0.64471112  0.79812955  0.09509602     0.03900
C2556       C  0.63777714  0.76082227  0.11679365    -0.12300
C2557       C  0.64897825  0.72223887  0.09846937     0.01400
C2558       C  0.66667541  0.72370822  0.06126041    -0.10800
C2559       C  0.66684005  0.75823185  0.03893929     0.03900
C2560       C  0.65942978  0.79466705  0.05692317    -0.10200
H2561       H  0.62317039  0.76221667  0.14558666     0.09500
H2562       H  0.67723820  0.69603468  0.04767101     0.07000
H2563       H  0.66831940  0.82152730  0.04166501     0.06800
C2564       C  0.60010617  0.86975772  0.21125893     0.03900
C2565       C  0.56197897  0.85489202  0.21441165    -0.12300
C2566       C  0.54373344  0.84751737  0.25069813     0.01400
C2567       C  0.56577988  0.84773115  0.28540149    -0.10800
C2568       C  0.60305955  0.86522798  0.28716653     0.03900
C2569       C  0.62161548  0.87649857  0.24871105    -0.10200
H2570       H  0.54691399  0.84601061  0.18742307     0.09500
H2571       H  0.55195662  0.83722090  0.31297241     0.07000
H2572       H  0.65048421  0.89098904  0.24748768     0.06800
C2573       C  0.96771159  0.90147054  0.34272861     0.03900
C2574       C  0.50470766  0.89600343  0.36503886    -0.12300
C2575       C  0.54359996  0.90705480  0.34708225     0.01400
C2576       C  0.54263610  0.92402090  0.30978947    -0.10800
C2577       C  0.50843668  0.92289718  0.28688469     0.03900
C2578       C  0.97179595  0.91465140  0.30430904    -0.10200
H2579       H  0.50286979  0.88265436  0.39420372     0.09500
H2580       H  0.57042527  0.93509469  0.29666442     0.07000
H2581       H  0.94525146  0.92284761  0.28882118     0.06800
C2582       C  0.85694129  0.97178867  0.39911143     0.03900
C2583       C  0.85528742  0.97327516  0.44057605    -0.12300
C2584       C  0.85246219  0.50928621  0.46211511     0.01400
C2585       C  0.85616255  0.54566948  0.44230984    -0.10800
C2586       C  0.85723968  0.54761578  0.40074525     0.03900
C2587       C  0.85988573  0.50976067  0.37859078    -0.10200
H2588       H  0.85176245  0.94525983  0.45607935     0.09500
H2589       H  0.85429311  0.57340297  0.45942859     0.07000
H2590       H  0.86541684  0.50971644  0.34662183     0.06800
C2591       C  0.54048383  0.61875308  0.15588955     0.03900
C2592       C  0.53633305  0.60560365  0.19432790    -0.12300
C2593       C  0.49965742  0.59729901  0.21168095     0.01400
C2594       C  0.96550116  0.59616479  0.18871713    -0.10800
C2595       C  0.96460791  0.61317149  0.15144399     0.03900
C2596       C  0.50351499  0.62422093  0.13353363    -0.10200
H2597       H  0.56284466  0.59746212  0.20988713     0.09500
H2598       H  0.93767709  0.58513832  0.20181203     0.07000
H2599       H  0.50536171  0.63758958  0.10437936     0.06800
C2600       C  0.65146292  0.65760805  0.14759131     0.46200
H2601       H  0.67131314  0.67738716  0.16579336    -0.02800
C2602       C  0.60483822  0.61261178  0.10416482     0.46300
H2603       H  0.58455950  0.59373017  0.08555725    -0.02800
C2604       C  0.63755283  0.67864234  0.10918281    -0.16500
C2605       C  0.67213488  0.61786323  0.13427664    -0.16300
C2606       C  0.61293203  0.64480249  0.17041811    -0.16600
C2607       C  0.61832276  0.65150111  0.08251251    -0.16600
C2608       C  0.64476462  0.59102409  0.11587080    -0.16200
C2609       C  0.58467076  0.62658056  0.14455907    -0.16500
C2610       C  0.89570214  0.85418484  0.03536692     0.03900
C2611       C  0.89027072  0.87635304  0.49827192    -0.12300
C2612       C  0.90120344  0.85815462  0.45944801     0.01400
C2613       C  0.91805313  0.82080564  0.46057895    -0.10800
C2614       C  0.91696633  0.79808517  0.99490378     0.03900
C2615       C  0.90884357  0.81571862  0.03145379    -0.10200
H2616       H  0.87707643  0.90559209  0.49998872     0.09500
H2617       H  0.92903692  0.80750090  0.43284045     0.07000
H2618       H  0.91707814  0.80032658  0.05803972     0.06800
O2619       O  0.76484471  0.72940687  0.44003788    -0.72200
O2620       O  0.74565136  0.72503173  0.05691634    -0.73200
O2621       O  0.69783413  0.72475701  0.98679222    -0.61800
O2622       O  0.81187017  0.72993419  0.51236713    -0.70200
O2623       O  0.81080990  0.79582223  0.51229449    -0.69800
O2624       O  0.69674158  0.79066549  0.98682143    -0.61000
O2625       O  0.74365582  0.79122889  0.05914879    -0.73500
O2626       O  0.76277254  0.79560096  0.44224686    -0.72300
Cu2627     Cu  0.75520923  0.72394565  0.49874402     1.04600
Cu2628     Cu  0.75335742  0.79668375  0.50042760     1.04300
C2629       C  0.75383622  0.76254302  0.42500049     0.94000
C2630       C  0.75454962  0.75806603  0.07421774     0.93100
C2631       C  0.68281482  0.75752053  0.99892037     0.85300
C2632       C  0.82575828  0.76303125  0.50011516     0.91600
O2633       O  0.78488310  0.56938092  0.26012783    -0.72200
O2634       O  0.78923808  0.95255626  0.24064416    -0.73200
O2635       O  0.78952188  0.02290819  0.19306423    -0.61800
O2636       O  0.78436839  0.49684978  0.30696698    -0.70200
O2637       O  0.71847117  0.49690089  0.30580782    -0.69800
O2638       O  0.72360467  0.02286474  0.19187474    -0.61000
O2639       O  0.72303531  0.95030994  0.23857713    -0.73500
O2640       O  0.71867670  0.56715873  0.25798997    -0.72300
Cu2641     Cu  0.79034605  0.51069421  0.25036385     1.04600
Cu2642     Cu  0.71758800  0.50901692  0.24842441     1.04300
C2643       C  0.75173814  0.58445504  0.24916038     0.94000
C2644       C  0.75620085  0.93522736  0.24947275     0.93100
C2645       C  0.75679129  0.01081810  0.17797144     0.85300
C2646       C  0.75122673  0.50905132  0.32082830     0.91600
O2647       O  0.94469515  0.74962709  0.27955714    -0.72200
O2648       O  0.56151161  0.76886545  0.28477545    -0.73200
O2649       O  0.49130464  0.81676480  0.28387530    -0.61800
O2650       O  0.01692585  0.70272628  0.28022063    -0.70200
O2651       O  0.01744412  0.70323296  0.21431491    -0.69800
O2652       O  0.49198378  0.81732750  0.21795165    -0.61000
O2653       O  0.56421947  0.77047223  0.21858340    -0.73500
O2654       O  0.94733355  0.75142414  0.21336693    -0.72300
Cu2655     Cu  0.50330428  0.75940366  0.28543489     1.04600
Cu2656     Cu  0.50556971  0.76068469  0.21269955     1.04300
C2657       C  0.92986647  0.76049269  0.24628566     0.94000
C2658       C  0.57904803  0.75976425  0.25191466     0.93100
C2659       C  0.50373164  0.83152733  0.25111439     0.85300
C2660       C  0.00499649  0.68855277  0.24712159     0.91600
C2661       C  0.90539767  0.65528713  0.71134817     0.03900
C2662       C  0.94276951  0.67260064  0.71302620    -0.12300
C2663       C  0.96486976  0.67277171  0.74768501     0.01400
C2664       C  0.94660533  0.66552352  0.78402123    -0.10800
C2665       C  0.90834258  0.65090990  0.78724840     0.03900
C2666       C  0.88678434  0.64423440  0.74981883    -0.10200
H2667       H  0.95660226  0.68299998  0.68541868     0.09500
H2668       H  0.96174711  0.67438581  0.81096314     0.07000
H2669       H  0.85779413  0.62994219  0.75103332     0.06800
C2670       C  0.71643539  0.91468546  0.63959897     0.03900
C2671       C  0.75379628  0.89305540  0.63275256    -0.12300
C2672       C  0.79230497  0.91141060  0.64407766     0.01400
C2673       C  0.79071661  0.94855590  0.66184539    -0.10800
C2674       C  0.75615450  0.97083249  0.66195829     0.03900
C2675       C  0.71976645  0.95283614  0.65439507    -0.10200
H2676       H  0.75247586  0.86426278  0.61811418     0.09500
H2677       H  0.81835727  0.96216193  0.67246432     0.07000
H2678       H  0.69285670  0.96803354  0.66325140     0.06800
C2679       C  0.65442077  0.79958552  0.89833356     0.03900
C2680       C  0.69601159  0.79826518  0.89967761    -0.12300
C2681       C  0.71667466  0.76219158  0.90235451     0.01400
C2682       C  0.69609332  0.72585727  0.89879016    -0.10800
C2683       C  0.65479057  0.72376354  0.89609226     0.03900
C2684       C  0.63339658  0.76158897  0.89388388    -0.10200
H2685       H  0.71252734  0.82633287  0.90201716     0.09500
H2686       H  0.71197461  0.69821593  0.90235943     0.07000
H2687       H  0.60159238  0.76157719  0.88801525     0.06800
C2688       C  0.61263797  0.66622698  0.96317164     0.03900
C2689       C  0.61802385  0.64411899  0.00030349    -0.12300
C2690       C  0.60706756  0.66236125  0.53910255     0.01400
C2691       C  0.59028951  0.69975727  0.53788609    -0.10800
C2692       C  0.59134533  0.72239450  0.00349036     0.03900
C2693       C  0.59943873  0.70466913  0.96698820    -0.10200
H2694       H  0.63119031  0.61485976  0.99860865     0.09500
H2695       H  0.57926464  0.71310849  0.56558252     0.07000
H2696       H  0.59116966  0.71996496  0.94035111     0.06800
C2697       C  0.65117695  0.54854779  0.59927049     0.03900
C2698       C  0.65274497  0.54714853  0.55781768    -0.12300
C2699       C  0.65564467  0.51120710  0.53620653     0.01400
C2700       C  0.65197876  0.97476627  0.55592544    -0.10800
C2701       C  0.65096272  0.97273117  0.59748596     0.03900
C2702       C  0.64832424  0.51053652  0.61972446    -0.10200
H2703       H  0.65624587  0.57520990  0.54237869     0.09500
H2704       H  0.65386532  0.94706727  0.53874437     0.07000
H2705       H  0.64285686  0.51051461  0.65170239     0.06800
C2706       C  0.90341535  0.85996171  0.70916348     0.03900
C2707       C  0.90486402  0.81836856  0.71038499    -0.12300
C2708       C  0.90719072  0.79763710  0.74643388     0.01400
C2709       C  0.90325204  0.81812955  0.78278179    -0.10800
C2710       C  0.90071316  0.85942712  0.78496820     0.03900
C2711       C  0.89873161  0.88090178  0.74718820    -0.10200
H2712       H  0.90746734  0.80190971  0.68230328     0.09500
H2713       H  0.90641494  0.80214330  0.81041506     0.07000
H2714       H  0.89284994  0.91270411  0.74725113     0.06800
C2715       C  0.60384748  0.86321645  0.96121744     0.03900
C2716       C  0.56238281  0.86201766  0.96287586    -0.12300
C2717       C  0.54097555  0.85877055  0.99890310     0.01400
C2718       C  0.56089856  0.86211521  0.53524586    -0.10800
C2719       C  0.60248147  0.86334082  0.53701950     0.03900
C2720       C  0.62452841  0.86594260  0.99910422    -0.10200
H2721       H  0.54671879  0.85899120  0.93490319     0.09500
H2722       H  0.54387859  0.85998160  0.56302147     0.07000
H2723       H  0.65652551  0.87132236  0.99895535     0.06800
O2724       O  0.56291731  0.77449158  0.97086712    -0.72200
O2725       O  0.94904061  0.74665223  0.96153838    -0.73200
O2726       O  0.49657217  0.81760761  0.96480116    -0.61800
O2727       O  0.01572747  0.70108313  0.96723217    -0.70200
O2728       O  0.01169902  0.70274755  0.53340121    -0.69800
O2729       O  0.49235309  0.81921779  0.53096999    -0.61000
O2730       O  0.94525445  0.74579307  0.52732374    -0.73500
O2731       O  0.55907693  0.77379470  0.53666068    -0.72300
Cu2732     Cu  0.50645004  0.75974546  0.96278729     1.04600
Cu2733     Cu  0.50170598  0.76059880  0.53539858     1.04300
C2734       C  0.57548455  0.76225633  0.00417817     0.94000
C2735       C  0.93270021  0.75816692  0.49406919     0.93100
C2736       C  0.50415760  0.83490747  0.99809535     0.85300
C2737       C  0.00398482  0.68543008  0.50015409     0.91600
C2738       C  0.84789917  0.54699322  0.60785772     0.03900
C2739       C  0.87008307  0.50989049  0.61319868    -0.12300
C2740       C  0.85190756  0.97108068  0.60223779     0.01400
C2741       C  0.81443705  0.97227750  0.58560935    -0.10800
C2742       C  0.79176881  0.50666927  0.58662553     0.03900
C2743       C  0.80947047  0.54318043  0.59465957    -0.10200
H2744       H  0.89932195  0.51161613  0.62635830     0.09500
H2745       H  0.80108131  0.94456744  0.57465697     0.07000
H2746       H  0.79415565  0.56982774  0.58639423     0.06800
O2747       O  0.69497935  0.97893775  0.48758475    -0.72200
O2748       O  0.81143869  0.97557975  0.00702993    -0.73200
O2749       O  0.74031223  0.97341422  0.55453234    -0.61800
O2750       O  0.76846062  0.98146750  0.94065788    -0.70200
O2751       O  0.76789013  0.54728894  0.94394552    -0.69800
O2752       O  0.73987207  0.53923938  0.55786352    -0.61000
O2753       O  0.81336704  0.54174685  0.01085893    -0.73500
O2754       O  0.69684946  0.54511187  0.49159467    -0.72300
Cu2755     Cu  0.75354614  0.97403472  0.99711768     1.04600
Cu2756     Cu  0.75475256  0.54667749  0.00139396     1.04300
C2757       C  0.67942568  0.51191320  0.49932025     0.94000
C2758       C  0.82886003  0.50872967  0.99913876     0.93100
C2759       C  0.75193666  0.50597806  0.57071282     0.85300
C2760       C  0.75628617  0.51468495  0.92781768     0.91600
C2761       C  0.90550702  0.65691848  0.96152947     0.03900
C2762       C  0.94709477  0.65821220  0.96321326    -0.12300
C2763       C  0.96710717  0.66161599  0.49949994     0.01400
C2764       C  0.94578054  0.65839934  0.53560088    -0.10800
C2765       C  0.90430003  0.65713183  0.53736081     0.03900
C2766       C  0.88355085  0.65431192  0.49950622    -0.10200
H2767       H  0.96404791  0.66034716  0.93539963     0.09500
H2768       H  0.96151872  0.66145711  0.56353139     0.07000
H2769       H  0.85156222  0.64889286  0.49972428     0.06800
C2770       C  0.85707072  0.86252343  0.64639935     0.46200
H2771       H  0.83738404  0.84428752  0.66631571    -0.02800
C2772       C  0.90184937  0.90604538  0.59964075     0.46300
H2773       H  0.92062544  0.92468764  0.57929542    -0.02800
C2774       C  0.83593438  0.90089467  0.63261336    -0.16500
C2775       C  0.89692572  0.87580659  0.66686544    -0.16300
C2776       C  0.86967233  0.83977230  0.60780392    -0.16600
C2777       C  0.86295325  0.92765842  0.61335157    -0.16600
C2778       C  0.92365993  0.89424852  0.63941729    -0.16200
C2779       C  0.88783010  0.86564838  0.57949959    -0.16500
C2780       C  0.85367462  0.79659415  0.60259478     0.03900
C2781       C  0.81235298  0.79459286  0.60030819    -0.12300
C2782       C  0.79164924  0.75833581  0.59694271     0.01400
C2783       C  0.81222393  0.72222375  0.59960739    -0.10800
C2784       C  0.85383408  0.72079096  0.60047553     0.03900
C2785       C  0.87501277  0.75872985  0.60464118    -0.10200
H2786       H  0.79653666  0.82225017  0.59680325     0.09500
H2787       H  0.79559403  0.69420634  0.59748851     0.07000
H2788       H  0.90686936  0.75865998  0.61022057     0.06800
C2789       C  0.89968762  0.61116453  0.60169997     0.46200
H2790       H  0.91826844  0.59080422  0.58285661    -0.02800
C2791       C  0.85629083  0.65789710  0.64670195     0.46300
H2792       H  0.83808626  0.67776757  0.66648087    -0.02800
C2793       C  0.88792647  0.65097283  0.58000190    -0.16500
C2794       C  0.85935246  0.59106667  0.61581514    -0.16100
C2795       C  0.92136161  0.62476219  0.64051872    -0.16600
C2796       C  0.86954486  0.67841264  0.60682239    -0.16600
C2797       C  0.83351322  0.61930688  0.63413080    -0.16200
C2798       C  0.89473800  0.64407419  0.66767435    -0.16500
C2799       C  0.71454025  0.61154595  0.64999952     0.03900
C2800       C  0.71594957  0.61019150  0.69158570    -0.12300
C2801       C  0.75207329  0.60731744  0.71213480     0.01400
C2802       C  0.78837135  0.61087480  0.69146751    -0.10800
C2803       C  0.79036565  0.61389102  0.65019828     0.03900
C2804       C  0.75249357  0.61611944  0.62890768    -0.10200
H2805       H  0.68791125  0.60787817  0.70817011     0.09500
H2806       H  0.81605576  0.60707047  0.70721817     0.07000
H2807       H  0.75243653  0.62207582  0.59712861     0.06800
C2808       C  0.54198769  0.60976062  0.85291100     0.03900
C2809       C  0.50406598  0.63045331  0.85546965    -0.12300
C2810       C  0.96614691  0.60843977  0.85259824     0.01400
C2811       C  0.96792734  0.56686175  0.85128161    -0.10800
C2812       C  0.50427777  0.54691127  0.84804762     0.03900
C2813       C  0.54032033  0.56828634  0.85153206    -0.10200
H2814       H  0.50418637  0.66243645  0.86090761     0.09500
H2815       H  0.94015694  0.54987185  0.84897801     0.07000
H2816       H  0.56828737  0.55262573  0.84852041     0.06800
O2817       O  0.53843953  0.50259020  0.80679261    -0.72200
O2818       O  0.53573325  0.02206088  0.69035661    -0.73200
O2819       O  0.53182713  0.56898101  0.76403327    -0.61800
O2820       O  0.54192253  0.95528708  0.73572072    -0.70200
O2821       O  0.97614303  0.95128317  0.73464990    -0.69800
O2822       O  0.96605051  0.56500730  0.76286383    -0.61000
O2823       O  0.96955598  0.01762225  0.69189748    -0.73500
O2824       O  0.97226994  0.49827383  0.80836877    -0.72300
Cu2825     Cu  0.54029075  0.51264418  0.74899161     1.04600
Cu2826     Cu  0.96768632  0.50763079  0.74968839     1.04300
C2827       C  0.50512887  0.51011456  0.82409776     0.94000
C2828       C  0.50289875  0.01023617  0.67458006     0.93100
C2829       C  0.49859351  0.58146966  0.75154702     0.85300
C2830       C  0.50940917  0.93878416  0.74704972     0.91600
C2831       C  0.60768403  0.66071145  0.71362487     0.03900
C2832       C  0.60560824  0.70203261  0.71570073    -0.12300
C2833       C  0.60174718  0.72264965  0.75195617     0.01400
C2834       C  0.60391766  0.70201055  0.78806447    -0.10800
C2835       C  0.60498199  0.66040205  0.78940574     0.03900
C2836       C  0.60946926  0.63930573  0.75144920    -0.10200
H2837       H  0.60262624  0.71793806  0.68807381     0.09500
H2838       H  0.60141784  0.71857684  0.81609335     0.07000
H2839       H  0.61509142  0.60745695  0.75148261     0.06800
C2840       C  0.66031522  0.97341688  0.89083402     0.03900
C2841       C  0.63808384  0.51049274  0.88547969    -0.12300
C2842       C  0.65622538  0.54932387  0.89641250     0.01400
C2843       C  0.69367367  0.54820810  0.91306590    -0.10800
C2844       C  0.71640616  0.51387201  0.91201669     0.03900
C2845       C  0.69877401  0.97731607  0.90396423    -0.10200
H2846       H  0.60884967  0.50874800  0.87231617     0.09500
H2847       H  0.70700222  0.57596111  0.92396042     0.07000
H2848       H  0.71417743  0.95070901  0.91218462     0.06800
C2849       C  0.60641835  0.61437819  0.89891928     0.46200
H2850       H  0.58762342  0.59576905  0.91927813    -0.02800
C2851       C  0.65127641  0.65783625  0.85215401     0.46300
H2852       H  0.67099622  0.67605231  0.83225079    -0.02800
C2853       C  0.64523650  0.59269359  0.88515515    -0.16500
C2854       C  0.58460133  0.62620155  0.85916519    -0.16300
C2855       C  0.62056910  0.65472126  0.91906897    -0.16600
C2856       C  0.67229283  0.61936968  0.86581061    -0.16600
C2857       C  0.61136194  0.64464305  0.83173440    -0.16200
C2858       C  0.63880370  0.68057148  0.89079481    -0.16500
C2859       C  0.79175514  0.60552037  0.85853442     0.03900
C2860       C  0.78837114  0.56723853  0.84399548    -0.12300
C2861       C  0.75195303  0.54917082  0.83661747     0.01400
C2862       C  0.71739739  0.57145527  0.83672514    -0.10800
C2863       C  0.71586733  0.60872567  0.85425755     0.03900
C2864       C  0.75439724  0.62718675  0.86530219    -0.10200
H2865       H  0.81524967  0.55199940  0.83511912     0.09500
H2866       H  0.68972818  0.55779306  0.82625343     0.07000
H2867       H  0.75569648  0.65612500  0.87968670     0.06800
C2868       C  0.85733744  0.65648700  0.85281473     0.46200
H2869       H  0.83832341  0.67546727  0.83380842    -0.02800
C2870       C  0.90178145  0.61210254  0.89725331     0.46300
H2871       H  0.92085169  0.59308368  0.91630775    -0.02800
C2872       C  0.89697136  0.64221195  0.83104620    -0.16500
C2873       C  0.87164075  0.67831644  0.89239879    -0.16300
C2874       C  0.83559755  0.61684100  0.86710887    -0.16600
C2875       C  0.92325521  0.62411325  0.85828043    -0.16600
C2876       C  0.88972901  0.65110389  0.91870574    -0.16200
C2877       C  0.86285166  0.59057072  0.88519957    -0.16500
C2878       C  0.85909113  0.79815211  0.90030450     0.03900
C2879       C  0.84163972  0.79672677  0.93763263    -0.12300
C2880       C  0.84151643  0.76222153  0.95996817     0.01400
C2881       C  0.84879169  0.72575998  0.94193238    -0.10800
C2882       C  0.86321906  0.72224499  0.90361442     0.03900
C2883       C  0.87001944  0.75955355  0.88186714    -0.10200
H2884       H  0.83119087  0.82442041  0.95127106     0.09500
H2885       H  0.83991910  0.69893274  0.95725445     0.07000
H2886       H  0.88433600  0.75818994  0.85288272     0.06800
C2887       C  0.90331367  0.90773549  0.89435541     0.46200
H2888       H  0.92357420  0.92666449  0.91293706    -0.02800
C2889       C  0.85675405  0.86260432  0.85097054     0.46300
H2890       H  0.83694965  0.84276954  0.83277662    -0.02800
C2891       C  0.86340420  0.92928692  0.88256874    -0.16500
C2892       C  0.92353919  0.89361735  0.85405028    -0.16300
C2893       C  0.88979012  0.86892946  0.91608601    -0.16600
C2894       C  0.83607970  0.90238838  0.86418335    -0.16600
C2895       C  0.89533917  0.87531003  0.82818974    -0.16200
C2896       C  0.87053681  0.84171490  0.88948440    -0.16500
C2897       C  0.79364359  0.90857989  0.84855652     0.03900
C2898       C  0.75575990  0.90424524  0.86980848    -0.12300
C2899       C  0.71785032  0.90637891  0.84859173     0.01400
C2900       C  0.71973122  0.90906851  0.80730901    -0.10800
C2901       C  0.75594791  0.91241389  0.78651135     0.03900
C2902       C  0.79211703  0.90956233  0.80696262    -0.10200
H2903       H  0.75590281  0.89851635  0.90162990     0.09500
H2904       H  0.69202514  0.91284931  0.79164145     0.07000
H2905       H  0.82010372  0.91169306  0.79027054     0.06800
C2906       C  0.60850685  0.90920536  0.89691815     0.46200
H2907       H  0.58988528  0.92955266  0.91573505    -0.02800
C2908       C  0.65196905  0.86246330  0.85200868     0.46300
H2909       H  0.67020748  0.84257613  0.83228065    -0.02800
C2910       C  0.58689861  0.89561236  0.85803974    -0.16500
C2911       C  0.64888110  0.92931053  0.88291616    -0.16300
C2912       C  0.62025790  0.86939006  0.91862427    -0.16600
C2913       C  0.61359908  0.87636709  0.83091237    -0.16600
C2914       C  0.67473728  0.90103429  0.86467966    -0.16200
C2915       C  0.63864375  0.84192927  0.89184675    -0.16500
C2916       C  0.96625477  0.91069219  0.64565721     0.03900
C2917       C  0.50420216  0.89004128  0.64315658    -0.12300
C2918       C  0.54208596  0.91212389  0.64597721     0.01400
C2919       C  0.54023555  0.95369611  0.64721909    -0.10800
C2920       C  0.50384736  0.97357620  0.65046305     0.03900
C2921       C  0.96785735  0.95215246  0.64695329    -0.10200
H2922       H  0.50412570  0.85804785  0.63777655     0.09500
H2923       H  0.56797850  0.97073987  0.64949336     0.07000
H2924       H  0.93986331  0.96777003  0.64994316     0.06800
C2925       C  0.65081044  0.86397688  0.64559303     0.46200
H2926       H  0.66984583  0.84501387  0.66459498    -0.02800
C2927       C  0.60631781  0.90832458  0.60115256     0.46300
H2928       H  0.58722917  0.92732410  0.58209511    -0.02800
C2929       C  0.61136035  0.87849658  0.66746873    -0.16500
C2930       C  0.67261086  0.90345157  0.63101281    -0.16300
C2931       C  0.63623940  0.84203470  0.60620569    -0.16600
C2932       C  0.58499035  0.89652139  0.64025838    -0.16600
C2933       C  0.64535950  0.92976185  0.61297191    -0.16200
C2934       C  0.61817943  0.86920184  0.57984171    -0.16500
C2935       C  0.64471109  0.79812954  0.59509608     0.03900
C2936       C  0.63777716  0.76082231  0.61679387    -0.12300
C2937       C  0.64897823  0.72223888  0.59846939     0.01400
C2938       C  0.66667524  0.72370846  0.56126054    -0.10800
C2939       C  0.66683990  0.75823183  0.53893931     0.03900
C2940       C  0.65942964  0.79466709  0.55692322    -0.10200
H2941       H  0.62317085  0.76221671  0.64558639     0.09500
H2942       H  0.67723846  0.69603393  0.54767062     0.07000
H2943       H  0.66831925  0.82152724  0.54166509     0.06800
C2944       C  0.60010624  0.86975774  0.71125898     0.03900
C2945       C  0.56197887  0.85489203  0.71441153    -0.12300
C2946       C  0.54373353  0.84751739  0.75069820     0.01400
C2947       C  0.56577996  0.84773114  0.78540151    -0.10800
C2948       C  0.60305968  0.86522801  0.78716651     0.03900
C2949       C  0.62161530  0.87649851  0.74871104    -0.10200
H2950       H  0.54691450  0.84601092  0.68742393     0.09500
H2951       H  0.55195678  0.83722092  0.81297242     0.07000
H2952       H  0.65048542  0.89098971  0.74748772     0.06800
C2953       C  0.96771166  0.90147057  0.84272863     0.03900
C2954       C  0.50470775  0.89600348  0.86503884    -0.12300
C2955       C  0.54360006  0.90705483  0.84708222     0.01400
C2956       C  0.54263613  0.92402090  0.80978940    -0.10800
C2957       C  0.50843670  0.92289711  0.78688467     0.03900
C2958       C  0.97179593  0.91465141  0.80430900    -0.10200
H2959       H  0.50286996  0.88265435  0.89420383     0.09500
H2960       H  0.57042514  0.93509466  0.79666443     0.07000
H2961       H  0.94525182  0.92284756  0.78882139     0.06800
C2962       C  0.85694144  0.97178867  0.89911139     0.03900
C2963       C  0.85528758  0.97327510  0.94057598    -0.12300
C2964       C  0.85246230  0.50928622  0.96211506     0.01400
C2965       C  0.85616259  0.54566954  0.94230973    -0.10800
C2966       C  0.85723960  0.54761577  0.90074514     0.03900
C2967       C  0.85988567  0.50976068  0.87859044    -0.10200
H2968       H  0.85176265  0.94525979  0.95607926     0.09500
H2969       H  0.85429315  0.57340281  0.95942834     0.07000
H2970       H  0.86541652  0.50971639  0.84662255     0.06800
C2971       C  0.54048383  0.61875313  0.65588956     0.03900
C2972       C  0.53633308  0.60560368  0.69432784    -0.12300
C2973       C  0.49965748  0.59729892  0.71168093     0.01400
C2974       C  0.96550134  0.59616471  0.68871708    -0.10800
C2975       C  0.96460794  0.61317147  0.65144403     0.03900
C2976       C  0.50351499  0.62422106  0.63353350    -0.10200
H2977       H  0.56284482  0.59746220  0.70988720     0.09500
H2978       H  0.93767680  0.58513804  0.70181222     0.07000
H2979       H  0.50536163  0.63758939  0.60438001     0.06800
C2980       C  0.65146296  0.65760812  0.64759137     0.46200
H2981       H  0.67131300  0.67738710  0.66579327    -0.02800
C2982       C  0.60483828  0.61261179  0.60416484     0.46300
H2983       H  0.58455955  0.59373016  0.58555720    -0.02800
C2984       C  0.63755287  0.67864235  0.60918284    -0.16500
C2985       C  0.67213490  0.61786324  0.63427670    -0.16300
C2986       C  0.61293204  0.64480254  0.67041810    -0.16600
C2987       C  0.61832289  0.65150107  0.58251252    -0.16600
C2988       C  0.64476465  0.59102408  0.61587091    -0.16200
C2989       C  0.58467077  0.62658061  0.64455905    -0.16500
C2990       C  0.89570216  0.85418482  0.53536690     0.03900
C2991       C  0.89027065  0.87635312  0.99827193    -0.12300
C2992       C  0.90120347  0.85815467  0.95944802     0.01400
C2993       C  0.91805304  0.82080574  0.96057902    -0.10800
C2994       C  0.91696642  0.79808516  0.49490379     0.03900
C2995       C  0.90884364  0.81571852  0.53145389    -0.10200
H2996       H  0.87707635  0.90559192  0.99998871     0.09500
H2997       H  0.92903698  0.80750081  0.93284016     0.07000
H2998       H  0.91707807  0.80032694  0.55803918     0.06800
O2999       O  0.76484470  0.72940682  0.94003773    -0.72200
O3000       O  0.74565135  0.72503176  0.55691646    -0.73200
O3001       O  0.69783414  0.72475701  0.48679242    -0.61800
O3002       O  0.81187025  0.72993410  0.01236695    -0.70200
O3003       O  0.81080980  0.79582214  0.01229441    -0.69800
O3004       O  0.69674159  0.79066551  0.48682164    -0.61000
O3005       O  0.74365589  0.79122894  0.55914887    -0.73500
O3006       O  0.76277249  0.79560091  0.94224674    -0.72300
Cu3007     Cu  0.75520925  0.72394563  0.99874384     1.04600
Cu3008     Cu  0.75335734  0.79668369  0.00042745     1.04300
C3009       C  0.75383625  0.76254299  0.92500034     0.94000
C3010       C  0.75454968  0.75806608  0.57421782     0.93100
C3011       C  0.68281474  0.75752060  0.49892047     0.85300
C3012       C  0.82575834  0.76303118  0.00011511     0.91600
O3013       O  0.78488316  0.56938096  0.76012785    -0.72200
O3014       O  0.78923823  0.95255631  0.74064417    -0.73200
O3015       O  0.78952194  0.02290822  0.69306408    -0.61800
O3016       O  0.78436852  0.49684981  0.80696699    -0.70200
O3017       O  0.71847132  0.49690089  0.80580781    -0.69800
O3018       O  0.72360475  0.02286476  0.69187471    -0.61000
O3019       O  0.72303546  0.95030998  0.73857713    -0.73500
O3020       O  0.71867676  0.56715878  0.75798996    -0.72300
Cu3021     Cu  0.79034617  0.51069426  0.75036385     1.04600
Cu3022     Cu  0.71758814  0.50901696  0.74842442     1.04300
C3023       C  0.75173824  0.58445509  0.74916039     0.94000
C3024       C  0.75620104  0.93522737  0.74947271     0.93100
C3025       C  0.75679138  0.01081808  0.67797137     0.85300
C3026       C  0.75122689  0.50905136  0.82082827     0.91600
O3027       O  0.94469523  0.74962707  0.77955713    -0.72200
O3028       O  0.56151163  0.76886537  0.78477566    -0.73200
O3029       O  0.49130480  0.81676462  0.78387536    -0.61800
O3030       O  0.01692596  0.70272622  0.78022064    -0.70200
O3031       O  0.01744421  0.70323300  0.71431492    -0.69800
O3032       O  0.49198385  0.81732753  0.71795168    -0.61000
O3033       O  0.56421953  0.77047223  0.71858359    -0.73500
O3034       O  0.94733354  0.75142419  0.71336692    -0.72300
Cu3035     Cu  0.50330434  0.75940353  0.78543506     1.04600
Cu3036     Cu  0.50556972  0.76068472  0.71269959     1.04300
C3037       C  0.92986647  0.76049269  0.74628571     0.94000
C3038       C  0.57904804  0.75976416  0.75191487     0.93100
C3039       C  0.50373173  0.83152725  0.75111444     0.85300
C3040       C  0.00499655  0.68855280  0.74712158     0.91600
loop_ 
_geom_bond_atom_site_label_1 
_geom_bond_atom_site_label_2 
_geom_bond_distance 
_geom_bond_site_symmetry_2 
_ccdc_geom_bond_type 
C1            C2   1.371       .  A
C1            C6   1.470       .  A
C1          C138   1.546       .  S
C2            C3   1.379       .  A
C2            H7   1.086       .  S
C3            C4   1.375       .  A
C3          C380   1.435       .  S
C4            C5   1.367       .  A
C4            H8   1.074       .  S
C5            C6   1.463       .  A
C5          C212   1.537       .  S
C6            H9   1.075       .  S
C10          C11   1.462       .  A
C10          C15   1.366       .  A
C10         C270   1.536       .  S
C11          C12   1.470       .  A
C11          H16   1.075       .  S
C12          C13   1.371       .  A
C12         C114   1.545       .  S
C13          C14   1.379       .  A
C13          H17   1.086       .  S
C14          C15   1.375       .  A
C14         C365   1.433       .  S
C15          H18   1.073       .  S
C19          C20   1.391       .  A
C19          C24   1.451       .  A
C19         C255   1.532       .  S
C20          C21   1.398       .  A
C20          H25   1.085       .  S
C21          C22   1.393       .  A
C21         C349   1.460       .  S
C22          C23   1.384       .  A
C22          H26   1.077       .  S
C23          C24   1.460       .  A
C23         C198   1.542       .  S
C24          H27   1.082       .  S
C28          C29   1.463       .  A
C28          C33   1.366       .  A
C28         C195   1.539       .  S
C29         C410   1.470       .  A
C29          H34   1.076       .  S
C30          C31   1.375       .  A
C30         C409   1.470       .  A
C30         C327   1.549       .  S
C31         C412   1.381       .  A
C31          H35   1.085       .  S
C32          C33   1.375       .  A
C32         C411   1.381       .  A
C32          C74   1.437       .  S
C33          H36   1.070       .  S
C37          C38   1.385       .  A
C37          C42   1.449       .  A
C37         C328   1.534       .  S
C38          C39   1.398       .  A
C38          H43   1.079       .  S
C39         C800   1.393   1_545  A
C39          C97   1.459   1_554  S
C40          C41   1.390       .  A
C40         C799   1.393       .  A
C40          H44   1.085       .  S
C41         C802   1.461       .  A
C41         C273   1.539       .  S
C42         C801   1.461   1_545  A
C42          H45   1.081       .  S
C46          C47   1.391       .  A
C46          C51   1.451       .  A
C46         C115   1.532       .  S
C47          C48   1.398       .  A
C47          H52   1.085       .  S
C48          C49   1.393       .  A
C48         C377   1.459       .  S
C49          C50   1.384       .  A
C49          H53   1.077       .  S
C50          C51   1.460       .  A
C50         C235   1.542       .  S
C51          H54   1.082       .  S
C55          C56   1.385       .  A
C55          C60   1.449       .  A
C55         C252   1.534       .  S
C56          C57   1.398       .  A
C56          H61   1.079       .  S
C57         C438   1.393       .  A
C57          C76   1.459       .  S
C58          C59   1.390       .  A
C58         C437   1.393   1_554  A
C58          H62   1.085       .  S
C59         C440   1.461   1_554  A
C59         C274   1.538       .  S
C60         C439   1.461       .  A
C60          H63   1.081       .  S
O64         Cu72   1.964       .  S
O64          C74   1.266       .  A
O65       Cu1592   1.962       .  S
O65         C455   1.268       .  A
O66         Cu72   1.964   1_655  S
O66          C76   1.274   1_655  A
O67       Cu1592   1.993       .  S
O67         C457   1.278       .  A
O68       Cu1593   1.964       .  S
O68          C77   1.274       .  A
O69         Cu73   1.992   1_655  S
O69         C456   1.278   1_654  A
O70       Cu1593   1.964       .  S
O70          C75   1.266   1_554  A
O71         Cu73   1.962       .  S
O71         C454   1.268       .  A
Cu72       O1585   1.962   1_455  S
Cu72       O1587   1.993       .  S
Cu72       Cu453   2.428       .  S
Cu73       O1588   1.964       .  S
Cu73       O1590   1.964   1_455  S
Cu73       Cu452   2.428   1_554  S
C74         O451   1.268       .  A
C75         C334   1.437       .  S
C75         O445   1.268       .  A
C76         O449   1.278   1_455  A
C77         C103   1.459   1_554  S
C77         O447   1.278   1_554  A
C78          C79   1.463       .  A
C78          C83   1.365       .  A
C78         C134   1.538       .  S
C79         C840   1.470   1_545  A
C79          H84   1.075       .  S
C80          C81   1.375       .  A
C80         C839   1.470       .  A
C80         C117   1.549       .  S
C81         C842   1.381       .  A
C81          H85   1.085       .  S
C82          C83   1.375       .  A
C82         C841   1.381   1_545  A
C82          C99   1.437       .  S
C83          H86   1.071       .  S
O87        Cu475   1.993       .  S
O87         C857   1.278       .  A
O88         Cu95   1.964       .  S
O88         C858   1.274       .  A
O89        Cu475   1.963   1_554  S
O89         C859   1.268       .  A
O90         Cu95   1.963       .  S
O90         C860   1.266       .  A
O91         Cu96   1.964       .  S
O91         C100   1.269       .  A
O92        Cu476   1.963       .  S
O92          C99   1.266       .  A
O93         Cu96   1.994       .  S
O93          C98   1.278       .  A
O94        Cu476   1.964   1_556  S
O94          C97   1.274       .  A
Cu95        O467   1.993       .  S
Cu95        O469   1.963       .  S
Cu95       Cu856   2.428       .  S
Cu96        O472   1.963       .  S
Cu96        O474   1.964       .  S
Cu96       Cu855   2.428   1_545  S
C97         O847   1.278   1_545  A
C98         C304   1.459       .  S
C98         O848   1.274   1_545  A
C99         O849   1.268   1_545  A
C100        C184   1.437       .  S
C100        O850   1.266   1_545  A
C101        C102   1.390       .  A
C101        C486   1.461       .  A
C101        C216   1.539       .  S
C102        C483   1.393       .  A
C102        H107   1.085       .  S
C103        C104   1.398   1_556  A
C103        C482   1.393       .  A
C104        C105   1.386       .  A
C104        H108   1.079       .  S
C105        C106   1.450   1_554  A
C105        C133   1.535       .  S
C106        C481   1.461       .  A
C106        H109   1.081       .  S
C110        H111   1.112       .  S
C110        C116   1.546       .  S
C110        C115   1.561       .  S
C110        C114   1.545       .  S
C112        H113   1.111       .  S
C112        C118   1.577       .  S
C112        C117   1.554       .  S
C112        C119   1.570       .  S
C114        C117   1.418       .  D
C115        C118   1.414       .  D
C116        C120   1.541       .  S
C116        C119   1.415       .  D
C118        C256   1.535       .  S
C119        C330   1.539       .  S
C120        C121   1.383       .  A
C120        C125   1.460       .  A
C121        C122   1.392       .  A
C121        H126   1.076       .  S
C122        C123   1.398       .  A
C122        C350   1.459       .  S
C123        C124   1.391       .  A
C123        H127   1.085       .  S
C124        C125   1.451       .  A
C124        C136   1.532       .  S
C125        H128   1.082       .  S
C129        H130   1.111       .  S
C129        C135   1.553       .  S
C129        C134   1.569       .  S
C129        C133   1.576       .  S
C131        H132   1.112       .  S
C131        C137   1.546       .  S
C131        C136   1.562       .  S
C131        C138   1.545       .  S
C133        C136   1.415       .  D
C134        C137   1.414       .  D
C135        C315   1.547       .  S
C135        C138   1.418       .  D
C137        C143   1.542       .  S
C139        C140   1.391       .  A
C139        C144   1.451       .  A
C139        C325   1.532       .  S
C140        C141   1.398       .  A
C140        H145   1.085       .  S
C141        C142   1.393       .  A
C141        C363   1.460       .  S
C142        C143   1.384       .  A
C142        H146   1.077       .  S
C143        C144   1.460       .  A
C144        H147   1.082       .  S
C148        C149   1.450       .  A
C148        C153   1.386       .  A
C148        C194   1.535       .  S
C149       C1670   1.461   1_455  A
C149        H154   1.081       .  S
C150        C151   1.390       .  A
C150       C1669   1.461       .  A
C150        C215   1.539       .  S
C151       C1672   1.393       .  A
C151        H155   1.085       .  S
C152        C153   1.398       .  A
C152       C1671   1.393   1_455  A
C152        C167   1.459       .  S
C153        H156   1.078       .  S
O157       Cu165   1.963       .  S
O157        C167   1.274       .  A
O158       Cu925   1.994       .  S
O158        C168   1.278       .  A
O159       Cu165   1.964       .  S
O159        C169   1.265   1_455  A
O160       Cu925   1.962       .  S
O160        C170   1.268       .  A
O161       Cu926   1.965       .  S
O161       C1690   1.265       .  A
O162       Cu166   1.962       .  S
O162       C1689   1.269       .  A
O163       Cu926   1.962       .  S
O163       C1688   1.274       .  A
O164       Cu166   1.995   1_565  S
O164       C1687   1.279   1_565  A
Cu165       O918   1.994       .  S
Cu165       O920   1.962   1_545  S
Cu165     Cu1686   2.428   1_455  S
Cu166       O921   1.965   1_545  S
Cu166       O923   1.962       .  S
Cu166     Cu1685   2.428       .  S
C167       O1684   1.279   1_445  A
C168        C260   1.459       .  S
C168       O1683   1.274   1_455  A
C169        C313   1.437       .  S
C169       O1682   1.269       .  A
C170        C297   1.437       .  S
C170       O1681   1.265   1_455  A
C171        C172   1.383       .  A
C171        C176   1.460       .  A
C171        C326   1.541       .  S
C172        C173   1.392       .  A
C172        H177   1.075       .  S
C173        C174   1.398       .  A
C173        C378   1.459       .  S
C174        C175   1.391       .  A
C174        H178   1.085       .  S
C175        C176   1.451       .  A
C175        C197   1.531       .  S
C176        H179   1.082       .  S
C180        C185   1.366       .  A
C180        C941   1.463       .  A
C180        C251   1.539       .  S
C181        C182   1.470       .  A
C181        C940   1.463   1_545  A
C181        H186   1.075       .  S
C182        C183   1.375       .  A
C182        C193   1.548       .  S
C183        C184   1.381       .  A
C183        H187   1.085       .  S
C184        C945   1.375   1_545  A
C185        C944   1.375       .  A
C185        H188   1.071       .  S
C189        H190   1.111       .  S
C189        C195   1.570       .  S
C189        C194   1.577       .  S
C189        C193   1.554       .  S
C191        H192   1.112       .  S
C191        C197   1.561       .  S
C191        C196   1.545       .  S
C191        C198   1.546       .  S
C193        C196   1.418       .  D
C194        C197   1.414       .  D
C195        C198   1.415       .  D
C196        C203   1.545       .  S
C199        C200   1.367       .  A
C199        C204   1.462       .  A
C199        C214   1.537       .  S
C200        C201   1.375       .  A
C200        H205   1.073       .  S
C201        C202   1.379       .  A
C201        C366   1.435       .  S
C202        C203   1.371       .  A
C202        H206   1.086       .  S
C203        C204   1.470       .  A
C204        H207   1.075       .  S
C208        H209   1.110       .  S
C208        C214   1.579       .  S
C208        C213   1.579       .  S
C208        C212   1.579       .  S
C210        H211   1.113       .  S
C210        C216   1.535       .  S
C210        C215   1.534       .  S
C210        C217   1.535       .  S
C212        C215   1.415       .  D
C213        C222   1.538       .  S
C213        C216   1.414       .  D
C214        C217   1.414       .  D
C217        C306   1.539       .  S
C218        C219   1.372       .  A
C218        C223   1.470       .  A
C218        C236   1.546       .  S
C219        C220   1.379       .  A
C219        H224   1.086       .  S
C220        C221   1.375       .  A
C220        C352   1.435       .  S
C221        C222   1.367       .  A
C221        H225   1.074       .  S
C222        C223   1.463       .  A
C223        H226   1.076       .  S
C227        H228   1.111       .  S
C227        C233   1.553       .  S
C227        C232   1.570       .  S
C227        C231   1.576       .  S
C229        H230   1.112       .  S
C229        C235   1.547       .  S
C229        C234   1.561       .  S
C229        C236   1.546       .  S
C231        C302   1.534       .  S
C231        C234   1.414       .  D
C232        C293   1.539       .  S
C232        C235   1.414       .  D
C233        C332   1.548       .  S
C233        C236   1.418       .  D
C234        C237   1.532       .  S
C237        C238   1.451       .  A
C237        C242   1.391       .  A
C238        C239   1.460       .  A
C238        H243   1.082       .  S
C239        C240   1.383       .  A
C239        C254   1.540       .  S
C240        C241   1.392       .  A
C240        H244   1.077       .  S
C241        C242   1.398       .  A
C241        C364   1.459       .  S
C242        H245   1.085       .  S
C246        H247   1.111       .  S
C246        C252   1.576       .  S
C246        C251   1.569       .  S
C246        C250   1.553       .  S
C248        H249   1.112       .  S
C248        C254   1.547       .  S
C248        C253   1.546       .  S
C248        C255   1.562       .  S
C250        C295   1.547       .  S
C250        C253   1.418       .  D
C251        C254   1.414       .  D
C252        C255   1.414       .  D
C253        C288   1.547       .  S
C256        C261   1.385       .  A
C256       C1777   1.450       .  A
C257        C258   1.461       .  A
C257       C1776   1.450   1_455  A
C257        H262   1.081       .  S
C258        C259   1.390       .  A
C258        C272   1.538       .  S
C259        C260   1.393       .  A
C259        H263   1.085       .  S
C260       C1781   1.398   1_455  A
C261       C1780   1.398       .  A
C261        H264   1.078       .  S
C265        H266   1.110       .  S
C265        C271   1.578       .  S
C265        C270   1.578       .  S
C265        C269   1.578       .  S
C267        H268   1.113       .  S
C267        C273   1.534       .  S
C267        C272   1.534       .  S
C267        C274   1.535       .  S
C269        C284   1.536       .  S
C269        C272   1.415       .  D
C270        C273   1.414       .  D
C271        C275   1.537       .  S
C271        C274   1.414       .  D
C275        C276   1.463       .  A
C275        C280   1.366       .  A
C276        C277   1.471       .  A
C276        H281   1.074       .  S
C277        C278   1.371       .  A
C277        C324   1.546       .  S
C278        C279   1.379       .  A
C278        H282   1.086       .  S
C279        C280   1.375       .  A
C279        C351   1.434   1_554  S
C280        H283   1.074       .  S
C284        C285   1.365       .  A
C284        C289   1.463       .  A
C285        C286   1.374       .  A
C285        H290   1.074       .  S
C286        C287   1.379       .  A
C286        C379   1.433       .  S
C287        C288   1.371       .  A
C287        H291   1.086       .  S
C288        C289   1.471       .  A
C289        H292   1.075       .  S
C293        C298   1.366       .  A
C293       C1814   1.463       .  A
C294        C295   1.470       .  A
C294       C1813   1.463   1_455  A
C294        H299   1.076       .  S
C295        C296   1.374       .  A
C296        C297   1.381       .  A
C296        H300   1.085       .  S
C297       C1818   1.376   1_455  A
C298       C1817   1.376       .  A
C298        H301   1.070       .  S
C302        C303   1.386       .  A
C302       C1067   1.450       .  A
C303       C1064   1.398       .  A
C303        H308   1.079       .  S
C304        C305   1.393       .  A
C304       C1063   1.398   1_545  A
C305        C306   1.390       .  A
C305        H309   1.085       .  S
C306        C307   1.461       .  A
C307       C1062   1.450   1_545  A
C307        H310   1.081       .  S
C311        C312   1.366       .  A
C311        C316   1.463       .  A
C311        C329   1.540       .  S
C312        C313   1.376   1_455  A
C312        H317   1.070       .  S
C313       C1834   1.381       .  A
C314        C315   1.374       .  A
C314       C1833   1.381       .  A
C314        H318   1.085       .  S
C315       C1836   1.470       .  A
C316       C1835   1.470   1_455  A
C316        H319   1.076       .  S
C320        H321   1.112       .  S
C320        C326   1.547       .  S
C320        C325   1.560       .  S
C320        C324   1.546       .  S
C322        H323   1.111       .  S
C322        C328   1.576       .  S
C322        C327   1.553       .  S
C322        C329   1.570       .  S
C324        C327   1.418       .  D
C325        C328   1.414       .  D
C326        C329   1.415       .  D
C330        C335   1.366       .  A
C330        C711   1.463   1_554  A
C331        C332   1.470       .  A
C331        C710   1.463       .  A
C331        H336   1.076       .  S
C332        C333   1.374       .  A
C333        C714   1.381       .  A
C333        H337   1.085       .  S
C334        C335   1.375   1_556  A
C334        C713   1.381       .  A
C335        H338   1.070       .  S
O339       Cu347   1.993       .  S
O339        C349   1.279       .  A
O340       Cu727   1.965   1_554  S
O340        C350   1.274       .  A
O341       Cu727   1.961       .  S
O341        C351   1.269       .  A
O342       Cu347   1.958       .  S
O342        C352   1.265       .  A
O343       Cu348   1.963       .  S
O343        C352   1.269       .  A
O344       Cu728   1.957   1_556  S
O344        C351   1.265       .  A
O345       Cu728   1.994       .  S
O345        C350   1.279       .  A
O346       Cu348   1.965       .  S
O346        C349   1.274       .  A
Cu347       O720   1.965       .  S
Cu347       O721   1.961       .  S
Cu347      Cu348   2.430       .  S
Cu348       O724   1.957       .  S
Cu348       O725   1.994       .  S
O353       Cu361   1.993       .  S
O353        C363   1.279       .  A
O354      Cu1121   1.965       .  S
O354        C364   1.274       .  A
O355      Cu1121   1.961       .  S
O355        C365   1.269       .  A
O356       Cu361   1.958   1_565  S
O356        C366   1.264   1_565  A
O357       Cu362   1.963   1_565  S
O357        C366   1.269   1_565  A
O358      Cu1122   1.957       .  S
O358        C365   1.265       .  A
O359      Cu1122   1.994       .  S
O359        C364   1.279       .  A
O360       Cu362   1.964       .  S
O360        C363   1.274       .  A
Cu361      O1114   1.965   1_545  S
Cu361      O1115   1.961       .  S
Cu361      Cu362   2.431       .  S
Cu362      O1118   1.957       .  S
Cu362      O1119   1.994   1_545  S
O367      Cu1895   1.992       .  S
O367        C377   1.278       .  A
O368       Cu375   1.966       .  S
O368        C378   1.274       .  A
O369       Cu375   1.962   1_655  S
O369        C379   1.269   1_655  A
O370      Cu1895   1.956       .  S
O370        C380   1.264       .  A
O371      Cu1896   1.964       .  S
O371        C380   1.269       .  A
O372       Cu376   1.955   1_655  S
O372        C379   1.265   1_655  A
O373       Cu376   1.993       .  S
O373        C378   1.279       .  A
O374      Cu1896   1.966       .  S
O374        C377   1.274       .  A
Cu375      O1887   1.992   1_455  S
Cu375      O1890   1.956       .  S
Cu375      Cu376   2.430       .  S
Cu376      O1891   1.964       .  S
Cu376      O1894   1.966   1_455  S
C381        C382   1.371       .  A
C381        C386   1.470       .  A
C381        C518   1.546       .  S
C382        C383   1.379       .  A
C382        H387   1.086       .  S
C383        C384   1.375       .  A
C383        C760   1.435       .  S
C384        C385   1.367       .  A
C384        H388   1.074       .  S
C385        C386   1.463       .  A
C385        C592   1.537       .  S
C386        H389   1.075       .  S
C390        C391   1.462       .  A
C390        C395   1.366       .  A
C390        C650   1.536       .  S
C391        C392   1.470       .  A
C391        H396   1.075       .  S
C392        C393   1.371       .  A
C392        C494   1.545       .  S
C393        C394   1.379       .  A
C393        H397   1.086       .  S
C394        C395   1.375       .  A
C394        C745   1.433       .  S
C395        H398   1.074       .  S
C399        C400   1.391       .  A
C399        C404   1.451       .  A
C399        C635   1.532       .  S
C400        C401   1.398       .  A
C400        H405   1.085       .  S
C401        C402   1.393       .  A
C401        C729   1.460       .  S
C402        C403   1.384       .  A
C402        H406   1.077       .  S
C403        C404   1.460       .  A
C403        C578   1.542       .  S
C404        H407   1.082       .  S
C408        C409   1.463   1_556  A
C408        C413   1.366       .  A
C408        C575   1.539       .  S
C409        H414   1.076   1_554  S
C410        C411   1.375       .  A
C410        C707   1.549       .  S
C411        H415   1.085       .  S
C412        C413   1.375   1_554  A
C412        C454   1.437       .  S
C413        H416   1.070       .  S
C417        C418   1.385       .  A
C417        C422   1.449       .  A
C417        C708   1.534       .  S
C418        C419   1.398       .  A
C418        H423   1.079       .  S
C419       C1180   1.393   1_545  A
C419        C477   1.459       .  S
C420       C1179   1.393       .  A
C420        C421   1.390       .  A
C420        H424   1.085       .  S
C421       C1182   1.461       .  A
C421        C653   1.539       .  S
C422       C1181   1.461   1_545  A
C422        H425   1.081       .  S
C426        C427   1.391       .  A
C426        C431   1.451       .  A
C426        C495   1.532       .  S
C427        C428   1.398       .  A
C427        H432   1.085       .  S
C428        C429   1.393       .  A
C428        C757   1.459       .  S
C429        C430   1.384       .  A
C429        H433   1.077       .  S
C430        C431   1.460       .  A
C430        C615   1.542       .  S
C431        H434   1.082       .  S
C435        C436   1.385       .  A
C435        C440   1.449       .  A
C435        C632   1.534       .  S
C436        C437   1.398       .  A
C436        H441   1.079       .  S
C437        C456   1.459       .  S
C438        C439   1.390       .  A
C438        H442   1.085       .  S
C439        C654   1.538       .  S
C440        H443   1.082       .  S
O444       Cu452   1.964       .  S
O444        C454   1.266   1_556  A
O445      Cu1972   1.962       .  S
O446       Cu452   1.964   1_655  S
O446        C456   1.274   1_655  A
O447      Cu1972   1.993       .  S
O448      Cu1973   1.964       .  S
O448        C457   1.274       .  A
O449       Cu453   1.992   1_655  S
O450      Cu1973   1.964       .  S
O450        C455   1.266       .  A
O451       Cu453   1.962       .  S
Cu452      O1965   1.962   1_455  S
Cu452      O1967   1.993       .  S
Cu453      O1968   1.964       .  S
Cu453      O1970   1.964   1_455  S
C455        C714   1.437       .  S
C457        C483   1.459       .  S
C458        C459   1.463       .  A
C458        C463   1.365       .  A
C458        C514   1.538       .  S
C459       C1220   1.470   1_545  A
C459        H464   1.075       .  S
C460       C1219   1.470       .  A
C460        C461   1.375       .  A
C460        C497   1.549       .  S
C461       C1222   1.381       .  A
C461        H465   1.085       .  S
C462       C1221   1.381   1_545  A
C462        C463   1.375       .  A
C462        C479   1.437       .  S
C463        H466   1.071       .  S
O467       C1237   1.278       .  A
O468       Cu475   1.964   1_554  S
O468       C1238   1.274   1_554  A
O469       C1239   1.268       .  A
O470       Cu475   1.963       .  S
O470       C1240   1.266       .  A
O471       Cu476   1.964   1_556  S
O471        C480   1.269       .  A
O472        C479   1.266       .  A
O473       Cu476   1.994       .  S
O473        C478   1.278   1_554  A
O474        C477   1.274       .  A
Cu475     Cu1236   2.428   1_556  S
Cu476     Cu1235   2.428   1_544  S
C477       O1227   1.278   1_545  A
C478        C684   1.459       .  S
C478       O1228   1.274   1_546  A
C479       O1229   1.268   1_545  A
C480        C564   1.437       .  S
C480       O1230   1.266   1_545  A
C481        C482   1.390       .  A
C481        C596   1.539       .  S
C482        H487   1.085       .  S
C483        C484   1.398       .  A
C484        C485   1.386       .  A
C484        H488   1.079       .  S
C485        C486   1.450       .  A
C485        C513   1.535       .  S
C486        H489   1.081       .  S
C490        H491   1.112       .  S
C490        C496   1.546       .  S
C490        C495   1.561       .  S
C490        C494   1.545       .  S
C492        H493   1.111       .  S
C492        C498   1.577       .  S
C492        C497   1.554       .  S
C492        C499   1.570       .  S
C494        C497   1.418       .  D
C495        C498   1.414       .  D
C496        C500   1.541       .  S
C496        C499   1.415       .  D
C498        C636   1.535       .  S
C499        C710   1.539       .  S
C500        C501   1.383       .  A
C500        C505   1.460       .  A
C501        C502   1.392       .  A
C501        H506   1.076       .  S
C502        C503   1.398       .  A
C502        C730   1.459       .  S
C503        C504   1.391       .  A
C503        H507   1.085       .  S
C504        C505   1.451       .  A
C504        C516   1.532       .  S
C505        H508   1.082       .  S
C509        H510   1.111       .  S
C509        C515   1.553       .  S
C509        C514   1.569       .  S
C509        C513   1.576       .  S
C511        H512   1.112       .  S
C511        C517   1.546       .  S
C511        C516   1.562       .  S
C511        C518   1.545       .  S
C513        C516   1.415       .  D
C514        C517   1.414       .  D
C515        C695   1.547       .  S
C515        C518   1.418       .  D
C517        C523   1.542       .  S
C519        C520   1.391       .  A
C519        C524   1.451       .  A
C519        C705   1.532       .  S
C520        C521   1.398       .  A
C520        H525   1.085       .  S
C521        C522   1.393       .  A
C521        C743   1.460       .  S
C522        C523   1.384       .  A
C522        H526   1.077       .  S
C523        C524   1.460       .  A
C524        H527   1.082       .  S
C528        C529   1.450       .  A
C528        C533   1.386       .  A
C528        C574   1.535       .  S
C529       C2050   1.461   1_455  A
C529        H534   1.081       .  S
C530       C2049   1.461       .  A
C530        C531   1.390       .  A
C530        C595   1.539       .  S
C531       C2052   1.393       .  A
C531        H535   1.085       .  S
C532       C2051   1.393   1_455  A
C532        C533   1.398       .  A
C532        C547   1.459       .  S
C533        H536   1.078       .  S
O537       Cu545   1.963       .  S
O537        C547   1.274       .  A
O538      Cu1305   1.994       .  S
O538        C548   1.278       .  A
O539       Cu545   1.964       .  S
O539        C549   1.265   1_455  A
O540      Cu1305   1.962       .  S
O540        C550   1.268       .  A
O541      Cu1306   1.965       .  S
O541       C2070   1.265       .  A
O542       Cu546   1.962       .  S
O542       C2069   1.269       .  A
O543      Cu1306   1.962       .  S
O543       C2068   1.274       .  A
O544       Cu546   1.995   1_565  S
O544       C2067   1.279   1_565  A
Cu545      O1298   1.994       .  S
Cu545      O1300   1.962   1_545  S
Cu545     Cu2066   2.428   1_455  S
Cu546      O1301   1.965   1_545  S
Cu546      O1303   1.962       .  S
Cu546     Cu2065   2.428       .  S
C547       O2064   1.279   1_445  A
C548        C640   1.459       .  S
C548       O2063   1.274   1_455  A
C549        C693   1.437       .  S
C549       O2062   1.269       .  A
C550        C677   1.437       .  S
C550       O2061   1.265   1_455  A
C551        C552   1.383       .  A
C551        C556   1.460       .  A
C551        C706   1.541       .  S
C552        C553   1.392       .  A
C552        H557   1.075       .  S
C553        C554   1.398       .  A
C553        C758   1.459       .  S
C554        C555   1.391       .  A
C554        H558   1.085       .  S
C555        C556   1.451       .  A
C555        C577   1.531       .  S
C556        H559   1.082       .  S
C560       C1321   1.463       .  A
C560        C565   1.366       .  A
C560        C631   1.539       .  S
C561       C1320   1.463   1_545  A
C561        C562   1.470       .  A
C561        H566   1.075       .  S
C562        C563   1.375       .  A
C562        C573   1.548       .  S
C563        C564   1.381       .  A
C563        H567   1.085       .  S
C564       C1325   1.375   1_545  A
C565       C1324   1.375       .  A
C565        H568   1.071       .  S
C569        H570   1.111       .  S
C569        C575   1.570       .  S
C569        C574   1.577       .  S
C569        C573   1.554       .  S
C571        H572   1.112       .  S
C571        C577   1.561       .  S
C571        C576   1.545       .  S
C571        C578   1.546       .  S
C573        C576   1.418       .  D
C574        C577   1.414       .  D
C575        C578   1.415       .  D
C576        C583   1.545       .  S
C579        C580   1.367       .  A
C579        C584   1.462       .  A
C579        C594   1.537       .  S
C580        C581   1.375       .  A
C580        H585   1.073       .  S
C581        C582   1.379       .  A
C581        C746   1.435       .  S
C582        C583   1.371       .  A
C582        H586   1.086       .  S
C583        C584   1.470       .  A
C584        H587   1.075       .  S
C588        H589   1.110       .  S
C588        C594   1.579       .  S
C588        C593   1.579       .  S
C588        C592   1.579       .  S
C590        H591   1.113       .  S
C590        C596   1.535       .  S
C590        C595   1.534       .  S
C590        C597   1.535       .  S
C592        C595   1.415       .  D
C593        C602   1.538       .  S
C593        C596   1.414       .  D
C594        C597   1.414       .  D
C597        C686   1.539       .  S
C598        C599   1.372       .  A
C598        C603   1.470       .  A
C598        C616   1.546       .  S
C599        C600   1.379       .  A
C599        H604   1.086       .  S
C600        C601   1.375       .  A
C600        C732   1.435   1_556  S
C601        C602   1.367       .  A
C601        H605   1.074       .  S
C602        C603   1.463       .  A
C603        H606   1.076       .  S
C607        H608   1.111       .  S
C607        C613   1.553       .  S
C607        C612   1.570       .  S
C607        C611   1.576       .  S
C609        H610   1.112       .  S
C609        C615   1.547       .  S
C609        C614   1.561       .  S
C609        C616   1.546       .  S
C611        C682   1.534       .  S
C611        C614   1.414       .  D
C612        C673   1.539       .  S
C612        C615   1.414       .  D
C613        C712   1.548       .  S
C613        C616   1.418       .  D
C614        C617   1.532       .  S
C617        C618   1.451       .  A
C617        C622   1.391       .  A
C618        C619   1.460       .  A
C618        H623   1.082       .  S
C619        C620   1.383       .  A
C619        C634   1.540       .  S
C620        C621   1.392       .  A
C620        H624   1.077       .  S
C621        C622   1.398       .  A
C621        C744   1.459       .  S
C622        H625   1.085       .  S
C626        H627   1.111       .  S
C626        C632   1.576       .  S
C626        C631   1.569       .  S
C626        C630   1.553       .  S
C628        H629   1.112       .  S
C628        C634   1.547       .  S
C628        C633   1.546       .  S
C628        C635   1.562       .  S
C630        C675   1.547       .  S
C630        C633   1.418       .  D
C631        C634   1.414       .  D
C632        C635   1.414       .  D
C633        C668   1.547       .  S
C636       C2157   1.450       .  A
C636        C641   1.385       .  A
C637       C2156   1.450   1_455  A
C637        C638   1.461       .  A
C637        H642   1.081       .  S
C638        C639   1.390       .  A
C638        C652   1.538       .  S
C639        C640   1.393       .  A
C639        H643   1.085       .  S
C640       C2161   1.398   1_455  A
C641       C2160   1.398       .  A
C641        H644   1.078       .  S
C645        H646   1.110       .  S
C645        C651   1.578       .  S
C645        C650   1.578       .  S
C645        C649   1.578       .  S
C647        H648   1.113       .  S
C647        C653   1.534       .  S
C647        C652   1.534       .  S
C647        C654   1.535       .  S
C649        C664   1.536       .  S
C649        C652   1.415       .  D
C650        C653   1.414       .  D
C651        C655   1.537       .  S
C651        C654   1.414       .  D
C655        C656   1.463       .  A
C655        C660   1.366       .  A
C656        C657   1.471       .  A
C656        H661   1.074       .  S
C657        C658   1.371       .  A
C657        C704   1.546       .  S
C658        C659   1.379       .  A
C658        H662   1.086       .  S
C659        C660   1.375       .  A
C659        C731   1.434       .  S
C660        H663   1.074       .  S
C664        C665   1.365       .  A
C664        C669   1.463       .  A
C665        C666   1.374       .  A
C665        H670   1.074       .  S
C666        C667   1.379       .  A
C666        C759   1.433       .  S
C667        C668   1.371       .  A
C667        H671   1.086       .  S
C668        C669   1.471       .  A
C669        H672   1.075       .  S
C673       C2194   1.463       .  A
C673        C678   1.366       .  A
C674       C2193   1.463   1_455  A
C674        C675   1.470       .  A
C674        H679   1.076       .  S
C675        C676   1.374       .  A
C676        C677   1.381       .  A
C676        H680   1.085       .  S
C677       C2198   1.376   1_455  A
C678       C2197   1.376       .  A
C678        H681   1.070       .  S
C682        C683   1.386       .  A
C682       C1447   1.450       .  A
C683       C1444   1.398       .  A
C683        H688   1.079       .  S
C684       C1443   1.398   1_545  A
C684        C685   1.393       .  A
C685        C686   1.390       .  A
C685        H689   1.085       .  S
C686        C687   1.461       .  A
C687       C1442   1.450   1_545  A
C687        H690   1.081       .  S
C691        C692   1.366       .  A
C691        C696   1.463       .  A
C691        C709   1.540       .  S
C692        C693   1.376   1_455  A
C692        H697   1.070       .  S
C693       C2214   1.381       .  A
C694       C2213   1.381       .  A
C694        C695   1.374       .  A
C694        H698   1.085       .  S
C695       C2216   1.470       .  A
C696       C2215   1.470   1_455  A
C696        H699   1.076       .  S
C700        H701   1.112       .  S
C700        C706   1.547       .  S
C700        C705   1.560       .  S
C700        C704   1.546       .  S
C702        H703   1.111       .  S
C702        C708   1.576       .  S
C702        C707   1.553       .  S
C702        C709   1.570       .  S
C704        C707   1.418       .  D
C705        C708   1.414       .  D
C706        C709   1.415       .  D
C710        C715   1.366       .  A
C711        C712   1.470       .  A
C711        H716   1.076       .  S
C712        C713   1.374       .  A
C713        H717   1.085       .  S
C714        C715   1.375       .  A
C715        H718   1.070       .  S
O719       Cu727   1.993       .  S
O719        C729   1.279       .  A
O720        C730   1.274       .  A
O721        C731   1.269       .  A
O722       Cu727   1.958   1_554  S
O722        C732   1.265       .  A
O723       Cu728   1.963       .  S
O723        C732   1.269       .  A
O724        C731   1.265       .  A
O725        C730   1.279       .  A
O726       Cu728   1.965   1_556  S
O726        C729   1.274       .  A
Cu727      Cu728   2.430   1_556  S
O733       Cu741   1.993       .  S
O733        C743   1.279       .  A
O734      Cu1501   1.965       .  S
O734        C744   1.274       .  A
O735      Cu1501   1.961       .  S
O735        C745   1.269       .  A
O736       Cu741   1.958   1_565  S
O736        C746   1.264   1_565  A
O737       Cu742   1.963   1_565  S
O737        C746   1.269   1_565  A
O738      Cu1502   1.957       .  S
O738        C745   1.265       .  A
O739      Cu1502   1.994       .  S
O739        C744   1.279       .  A
O740       Cu742   1.964       .  S
O740        C743   1.274       .  A
Cu741      O1494   1.965   1_545  S
Cu741      O1495   1.961       .  S
Cu741      Cu742   2.431       .  S
Cu742      O1498   1.957       .  S
Cu742      O1499   1.994   1_545  S
O747      Cu2275   1.992       .  S
O747        C757   1.278       .  A
O748       Cu755   1.966       .  S
O748        C758   1.274       .  A
O749       Cu755   1.962   1_655  S
O749        C759   1.269   1_655  A
O750      Cu2275   1.956       .  S
O750        C760   1.264       .  A
O751      Cu2276   1.964       .  S
O751        C760   1.269       .  A
O752       Cu756   1.955   1_655  S
O752        C759   1.265   1_655  A
O753       Cu756   1.993       .  S
O753        C758   1.279       .  A
O754      Cu2276   1.966       .  S
O754        C757   1.274       .  A
Cu755      O2267   1.992   1_455  S
Cu755      O2270   1.956       .  S
Cu755      Cu756   2.430       .  S
Cu756      O2271   1.964       .  S
Cu756      O2274   1.966   1_455  S
C761        C762   1.371       .  A
C761        C766   1.470       .  A
C761        C898   1.546       .  S
C762        C763   1.379       .  A
C762        H767   1.086       .  S
C763        C764   1.375       .  A
C763       C1140   1.435       .  S
C764        C765   1.367       .  A
C764        H768   1.074       .  S
C765        C766   1.463       .  A
C765        C972   1.537       .  S
C766        H769   1.076       .  S
C770        C771   1.462       .  A
C770        C775   1.366       .  A
C770       C1030   1.536       .  S
C771        C772   1.470       .  A
C771        H776   1.075       .  S
C772        C773   1.371       .  A
C772        C874   1.545       .  S
C773        C774   1.379       .  A
C773        H777   1.086       .  S
C774        C775   1.375       .  A
C774       C1125   1.433   1_565  S
C775        H778   1.074       .  S
C779        C780   1.391       .  A
C779        C784   1.451       .  A
C779       C1015   1.532       .  S
C780        C781   1.398       .  A
C780        H785   1.085       .  S
C781        C782   1.393       .  A
C781       C1109   1.460       .  S
C782        C783   1.384       .  A
C782        H786   1.077       .  S
C783        C784   1.460       .  A
C783        C958   1.542       .  S
C784        H787   1.082       .  S
C788        C789   1.463       .  A
C788        C793   1.366       .  A
C788        C955   1.539       .  S
C789       C1170   1.470       .  A
C789        H794   1.076       .  S
C790       C1169   1.470       .  A
C790        C791   1.375       .  A
C790       C1087   1.549       .  S
C791       C1172   1.381       .  A
C791        H795   1.085       .  S
C792       C1171   1.381       .  A
C792        C793   1.375       .  A
C792        C834   1.437       .  S
C793        H796   1.070       .  S
C797        C798   1.385       .  A
C797        C802   1.449       .  A
C797       C1088   1.534       .  S
C798        C799   1.398       .  A
C798        H803   1.079       .  S
C799        C857   1.459   1_554  S
C800        C801   1.390       .  A
C800        H804   1.085       .  S
C801       C1033   1.539       .  S
C802        H805   1.082       .  S
C806        C807   1.391       .  A
C806        C811   1.451       .  A
C806        C875   1.532       .  S
C807        C808   1.398       .  A
C807        H812   1.085       .  S
C808        C809   1.393       .  A
C808       C1137   1.459       .  S
C809        C810   1.384       .  A
C809        H813   1.077       .  S
C810        C811   1.460       .  A
C810        C995   1.542       .  S
C811        H814   1.082       .  S
C815        C816   1.385       .  A
C815        C820   1.449       .  A
C815       C1012   1.534       .  S
C816        C817   1.398       .  A
C816        H821   1.079       .  S
C817       C1198   1.393       .  A
C817        C836   1.459       .  S
C818       C1197   1.393   1_554  A
C818        C819   1.390       .  A
C818        H822   1.085       .  S
C819       C1200   1.461   1_554  A
C819       C1034   1.538       .  S
C820       C1199   1.461       .  A
C820        H823   1.081       .  S
O824       Cu832   1.964       .  S
O824        C834   1.266       .  A
O825      Cu2352   1.962       .  S
O825       C1215   1.268       .  A
O826       Cu832   1.964   1_655  S
O826        C836   1.274   1_655  A
O827      Cu2352   1.993       .  S
O827       C1217   1.278       .  A
O828      Cu2353   1.964       .  S
O828        C837   1.274       .  A
O829       Cu833   1.992   1_655  S
O829       C1216   1.278   1_654  A
O830      Cu2353   1.964       .  S
O830        C835   1.266   1_554  A
O831       Cu833   1.962       .  S
O831       C1214   1.268       .  A
Cu832      O2345   1.962   1_455  S
Cu832      O2347   1.993       .  S
Cu832     Cu1213   2.428       .  S
Cu833      O2348   1.964       .  S
Cu833      O2350   1.964   1_455  S
Cu833     Cu1212   2.428   1_554  S
C834       O1211   1.268       .  A
C835       C1094   1.437       .  S
C835       O1205   1.268       .  A
C836       O1209   1.278   1_455  A
C837        C863   1.459   1_554  S
C837       O1207   1.278   1_554  A
C838        C839   1.463       .  A
C838        C843   1.365       .  A
C838        C894   1.538       .  S
C839        H844   1.075       .  S
C840        C841   1.375       .  A
C840        C877   1.549       .  S
C841        H845   1.085       .  S
C842        C843   1.375       .  A
C842        C859   1.437       .  S
C843        H846   1.071       .  S
O847      Cu1235   1.993       .  S
O848       Cu855   1.964       .  S
O849      Cu1235   1.963   1_554  S
O850       Cu855   1.963       .  S
O851       Cu856   1.964       .  S
O851        C860   1.269       .  A
O852      Cu1236   1.963       .  S
O852        C859   1.266       .  A
O853       Cu856   1.994       .  S
O853        C858   1.278       .  A
O854      Cu1236   1.964   1_556  S
O854        C857   1.274       .  A
Cu855      O1227   1.993       .  S
Cu855      O1229   1.963       .  S
Cu856      O1232   1.963       .  S
Cu856      O1234   1.964       .  S
C858       C1064   1.459       .  S
C860        C944   1.437       .  S
C861        C862   1.390       .  A
C861       C1246   1.461       .  A
C861        C976   1.539       .  S
C862       C1243   1.393       .  A
C862        H867   1.085       .  S
C863       C1242   1.393       .  A
C863        C864   1.398   1_556  A
C864        C865   1.386       .  A
C864        H868   1.079       .  S
C865        C866   1.450   1_554  A
C865        C893   1.535       .  S
C866       C1241   1.461       .  A
C866        H869   1.081       .  S
C870        H871   1.112       .  S
C870        C876   1.546       .  S
C870        C875   1.561       .  S
C870        C874   1.545       .  S
C872        H873   1.111       .  S
C872        C878   1.577       .  S
C872        C877   1.554       .  S
C872        C879   1.570       .  S
C874        C877   1.418       .  D
C875        C878   1.414       .  D
C876        C880   1.541       .  S
C876        C879   1.415       .  D
C878       C1016   1.535       .  S
C879       C1090   1.539       .  S
C880        C881   1.383       .  A
C880        C885   1.460       .  A
C881        C882   1.392       .  A
C881        H886   1.076       .  S
C882        C883   1.398       .  A
C882       C1110   1.459       .  S
C883        C884   1.391       .  A
C883        H887   1.085       .  S
C884        C885   1.451       .  A
C884        C896   1.532       .  S
C885        H888   1.082       .  S
C889        H890   1.111       .  S
C889        C895   1.553       .  S
C889        C894   1.569       .  S
C889        C893   1.576       .  S
C891        H892   1.112       .  S
C891        C897   1.546       .  S
C891        C896   1.562       .  S
C891        C898   1.545       .  S
C893        C896   1.415       .  D
C894        C897   1.414       .  D
C895       C1075   1.547       .  S
C895        C898   1.418       .  D
C897        C903   1.542       .  S
C899        C900   1.391       .  A
C899        C904   1.451       .  A
C899       C1085   1.532       .  S
C900        C901   1.398       .  A
C900        H905   1.085       .  S
C901        C902   1.393       .  A
C901       C1123   1.460       .  S
C902        C903   1.384       .  A
C902        H906   1.077       .  S
C903        C904   1.460       .  A
C904        H907   1.082       .  S
C908        C909   1.450       .  A
C908        C913   1.386       .  A
C908        C954   1.535       .  S
C909       C2430   1.461   1_455  A
C909        H914   1.081       .  S
C910       C2429   1.461       .  A
C910        C911   1.390       .  A
C910        C975   1.539       .  S
C911       C2432   1.393       .  A
C911        H915   1.085       .  S
C912       C2431   1.393   1_455  A
C912        C913   1.398       .  A
C912        C927   1.459       .  S
C913        H916   1.078       .  S
O917       Cu925   1.963       .  S
O917        C927   1.274       .  A
O918        C928   1.278       .  A
O919       Cu925   1.964       .  S
O919        C929   1.265   1_455  A
O920        C930   1.268       .  A
O921       C2450   1.265       .  A
O922       Cu926   1.962       .  S
O922       C2449   1.269       .  A
O923       C2448   1.274       .  A
O924       Cu926   1.995       .  S
O924       C2447   1.279       .  A
Cu925     Cu2446   2.428   1_455  S
Cu926     Cu2445   2.428       .  S
C927       O2444   1.279   1_455  A
C928       C1020   1.459   1_545  S
C928       O2443   1.274   1_455  A
C929       C1073   1.437       .  S
C929       O2442   1.269       .  A
C930       C1057   1.437       .  S
C930       O2441   1.265   1_455  A
C931        C932   1.383       .  A
C931        C936   1.460       .  A
C931       C1086   1.541       .  S
C932        C933   1.392       .  A
C932        H937   1.075       .  S
C933        C934   1.398       .  A
C933       C1138   1.459       .  S
C934        C935   1.391       .  A
C934        H938   1.085       .  S
C935        C936   1.451       .  A
C935        C957   1.531       .  S
C936        H939   1.082       .  S
C940        C945   1.366       .  A
C940       C1011   1.539       .  S
C941        C942   1.470       .  A
C941        H946   1.075       .  S
C942        C943   1.375       .  A
C942        C953   1.548       .  S
C943        C944   1.381       .  A
C943        H947   1.085       .  S
C945        H948   1.071       .  S
C949        H950   1.111       .  S
C949        C955   1.570       .  S
C949        C954   1.577       .  S
C949        C953   1.554       .  S
C951        H952   1.112       .  S
C951        C957   1.561       .  S
C951        C956   1.545       .  S
C951        C958   1.546       .  S
C953        C956   1.418       .  D
C954        C957   1.414       .  D
C955        C958   1.415       .  D
C956        C963   1.545       .  S
C959        C960   1.367       .  A
C959        C964   1.462       .  A
C959        C974   1.537       .  S
C960        C961   1.375       .  A
C960        H965   1.073       .  S
C961        C962   1.379       .  A
C961       C1126   1.435       .  S
C962        C963   1.371       .  A
C962        H966   1.086       .  S
C963        C964   1.470       .  A
C964        H967   1.075       .  S
C968        H969   1.110       .  S
C968        C974   1.579       .  S
C968        C973   1.579       .  S
C968        C972   1.579       .  S
C970        H971   1.113       .  S
C970        C976   1.535       .  S
C970        C975   1.534       .  S
C970        C977   1.535       .  S
C972        C975   1.415       .  D
C973        C982   1.538       .  S
C973        C976   1.414       .  D
C974        C977   1.414       .  D
C977       C1066   1.539       .  S
C978        C979   1.372       .  A
C978        C983   1.470       .  A
C978        C996   1.546       .  S
C979        C980   1.379       .  A
C979        H984   1.086       .  S
C980        C981   1.375       .  A
C980       C1112   1.435       .  S
C981        C982   1.367       .  A
C981        H985   1.074       .  S
C982        C983   1.463       .  A
C983        H986   1.076       .  S
C987        H988   1.111       .  S
C987        C993   1.553       .  S
C987        C992   1.570       .  S
C987        C991   1.576       .  S
C989        H990   1.112       .  S
C989        C995   1.547       .  S
C989        C994   1.561       .  S
C989        C996   1.546       .  S
C991       C1062   1.534       .  S
C991        C994   1.414       .  D
C992       C1053   1.539       .  S
C992        C995   1.414       .  D
C993       C1092   1.548       .  S
C993        C996   1.418       .  D
C994        C997   1.532       .  S
C997        C998   1.451       .  A
C997       C1002   1.391       .  A
C998        C999   1.460       .  A
C998       H1003   1.082       .  S
C999       C1000   1.383       .  A
C999       C1014   1.540       .  S
C1000      C1001   1.392       .  A
C1000      H1004   1.077       .  S
C1001      C1002   1.398       .  A
C1001      C1124   1.459       .  S
C1002      H1005   1.085       .  S
C1006      H1007   1.111       .  S
C1006      C1012   1.576       .  S
C1006      C1011   1.569       .  S
C1006      C1010   1.553       .  S
C1008      H1009   1.112       .  S
C1008      C1014   1.547       .  S
C1008      C1013   1.546       .  S
C1008      C1015   1.562       .  S
C1010      C1055   1.547       .  S
C1010      C1013   1.418       .  D
C1011      C1014   1.414       .  D
C1012      C1015   1.414       .  D
C1013      C1048   1.547       .  S
C1016      C2537   1.450       .  A
C1016      C1021   1.385       .  A
C1017      C2536   1.450   1_455  A
C1017      C1018   1.461       .  A
C1017      H1022   1.081       .  S
C1018      C1019   1.390       .  A
C1018      C1032   1.538       .  S
C1019      C1020   1.393       .  A
C1019      H1023   1.085       .  S
C1020      C2541   1.398   1_455  A
C1021      C2540   1.398       .  A
C1021      H1024   1.078       .  S
C1025      H1026   1.110       .  S
C1025      C1031   1.578       .  S
C1025      C1030   1.578       .  S
C1025      C1029   1.578       .  S
C1027      H1028   1.113       .  S
C1027      C1033   1.534       .  S
C1027      C1032   1.534       .  S
C1027      C1034   1.535       .  S
C1029      C1044   1.536       .  S
C1029      C1032   1.415       .  D
C1030      C1033   1.414       .  D
C1031      C1035   1.537       .  S
C1031      C1034   1.414       .  D
C1035      C1036   1.463       .  A
C1035      C1040   1.366       .  A
C1036      C1037   1.471       .  A
C1036      H1041   1.074       .  S
C1037      C1038   1.371       .  A
C1037      C1084   1.546       .  S
C1038      C1039   1.379       .  A
C1038      H1042   1.086       .  S
C1039      C1040   1.375       .  A
C1039      C1111   1.434   1_554  S
C1040      H1043   1.074       .  S
C1044      C1045   1.365       .  A
C1044      C1049   1.463       .  A
C1045      C1046   1.374       .  A
C1045      H1050   1.074       .  S
C1046      C1047   1.379       .  A
C1046      C1139   1.433       .  S
C1047      C1048   1.371       .  A
C1047      H1051   1.086       .  S
C1048      C1049   1.471       .  A
C1049      H1052   1.075       .  S
C1053      C2574   1.463       .  A
C1053      C1058   1.366       .  A
C1054      C2573   1.463   1_455  A
C1054      C1055   1.470       .  A
C1054      H1059   1.076       .  S
C1055      C1056   1.374       .  A
C1056      C1057   1.381       .  A
C1056      H1060   1.085       .  S
C1057      C2578   1.376   1_455  A
C1058      C2577   1.376       .  A
C1058      H1061   1.070       .  S
C1062      C1063   1.386       .  A
C1063      H1068   1.079       .  S
C1064      C1065   1.393       .  A
C1065      C1066   1.390       .  A
C1065      H1069   1.085       .  S
C1066      C1067   1.461       .  A
C1067      H1070   1.081       .  S
C1071      C1072   1.366       .  A
C1071      C1076   1.463       .  A
C1071      C1089   1.540       .  S
C1072      C1073   1.376   1_455  A
C1072      H1077   1.070       .  S
C1073      C2594   1.381       .  A
C1074      C2593   1.381       .  A
C1074      C1075   1.374       .  A
C1074      H1078   1.085       .  S
C1075      C2596   1.470       .  A
C1076      C2595   1.470   1_455  A
C1076      H1079   1.076       .  S
C1080      H1081   1.112       .  S
C1080      C1086   1.547       .  S
C1080      C1085   1.560       .  S
C1080      C1084   1.546       .  S
C1082      H1083   1.111       .  S
C1082      C1088   1.576       .  S
C1082      C1087   1.553       .  S
C1082      C1089   1.570       .  S
C1084      C1087   1.418       .  D
C1085      C1088   1.414       .  D
C1086      C1089   1.415       .  D
C1090      C1471   1.463   1_554  A
C1090      C1095   1.366       .  A
C1091      C1470   1.463       .  A
C1091      C1092   1.470       .  A
C1091      H1096   1.076       .  S
C1092      C1093   1.374       .  A
C1093      C1474   1.381       .  A
C1093      H1097   1.085       .  S
C1094      C1473   1.381       .  A
C1094      C1095   1.375   1_556  A
C1095      H1098   1.070       .  S
O1099     Cu1107   1.993       .  S
O1099      C1109   1.279       .  A
O1100     Cu1487   1.965   1_554  S
O1100      C1110   1.274       .  A
O1101     Cu1487   1.961       .  S
O1101      C1111   1.269       .  A
O1102     Cu1107   1.958       .  S
O1102      C1112   1.265       .  A
O1103     Cu1108   1.963       .  S
O1103      C1112   1.269       .  A
O1104     Cu1488   1.957   1_556  S
O1104      C1111   1.265       .  A
O1105     Cu1488   1.994       .  S
O1105      C1110   1.279       .  A
O1106     Cu1108   1.965       .  S
O1106      C1109   1.274       .  A
Cu1107     O1480   1.965       .  S
Cu1107     O1481   1.961       .  S
Cu1107    Cu1108   2.430       .  S
Cu1108     O1484   1.957       .  S
Cu1108     O1485   1.994       .  S
O1113     Cu1121   1.993       .  S
O1113      C1123   1.279       .  A
O1114      C1124   1.274       .  A
O1115      C1125   1.269       .  A
O1116     Cu1121   1.958       .  S
O1116      C1126   1.264       .  A
O1117     Cu1122   1.963       .  S
O1117      C1126   1.269       .  A
O1118      C1125   1.265       .  A
O1119      C1124   1.279       .  A
O1120     Cu1122   1.964       .  S
O1120      C1123   1.274       .  A
Cu1121    Cu1122   2.431       .  S
O1127     Cu2655   1.992       .  S
O1127      C1137   1.278       .  A
O1128     Cu1135   1.966       .  S
O1128      C1138   1.274       .  A
O1129     Cu1135   1.962   1_655  S
O1129      C1139   1.269   1_655  A
O1130     Cu2655   1.956       .  S
O1130      C1140   1.264       .  A
O1131     Cu2656   1.964       .  S
O1131      C1140   1.269       .  A
O1132     Cu1136   1.955   1_655  S
O1132      C1139   1.265   1_655  A
O1133     Cu1136   1.993       .  S
O1133      C1138   1.279       .  A
O1134     Cu2656   1.966       .  S
O1134      C1137   1.274       .  A
Cu1135     O2647   1.992   1_455  S
Cu1135     O2650   1.956       .  S
Cu1135    Cu1136   2.430       .  S
Cu1136     O2651   1.964       .  S
Cu1136     O2654   1.966   1_455  S
C1141      C1142   1.371       .  A
C1141      C1146   1.470       .  A
C1141      C1278   1.546       .  S
C1142      C1143   1.379       .  A
C1142      H1147   1.086       .  S
C1143      C1144   1.375       .  A
C1143      C1520   1.435       .  S
C1144      C1145   1.367       .  A
C1144      H1148   1.074       .  S
C1145      C1146   1.463       .  A
C1145      C1352   1.537       .  S
C1146      H1149   1.075       .  S
C1150      C1151   1.462       .  A
C1150      C1155   1.366       .  A
C1150      C1410   1.536       .  S
C1151      C1152   1.470       .  A
C1151      H1156   1.075       .  S
C1152      C1153   1.371       .  A
C1152      C1254   1.545       .  S
C1153      C1154   1.379       .  A
C1153      H1157   1.086       .  S
C1154      C1155   1.375       .  A
C1154      C1505   1.433   1_565  S
C1155      H1158   1.074       .  S
C1159      C1160   1.391       .  A
C1159      C1164   1.451       .  A
C1159      C1395   1.532       .  S
C1160      C1161   1.398       .  A
C1160      H1165   1.085       .  S
C1161      C1162   1.393       .  A
C1161      C1489   1.460       .  S
C1162      C1163   1.384       .  A
C1162      H1166   1.077       .  S
C1163      C1164   1.460       .  A
C1163      C1338   1.542       .  S
C1164      H1167   1.082       .  S
C1168      C1169   1.463   1_556  A
C1168      C1173   1.366       .  A
C1168      C1335   1.539       .  S
C1169      H1174   1.076   1_554  S
C1170      C1171   1.375       .  A
C1170      C1467   1.549       .  S
C1171      H1175   1.085       .  S
C1172      C1173   1.375   1_554  A
C1172      C1214   1.437       .  S
C1173      H1176   1.070       .  S
C1177      C1178   1.385       .  A
C1177      C1182   1.449       .  A
C1177      C1468   1.534       .  S
C1178      C1179   1.398       .  A
C1178      H1183   1.079       .  S
C1179      C1237   1.459       .  S
C1180      C1181   1.390       .  A
C1180      H1184   1.085       .  S
C1181      C1413   1.539       .  S
C1182      H1185   1.082       .  S
C1186      C1187   1.391       .  A
C1186      C1191   1.451       .  A
C1186      C1255   1.532       .  S
C1187      C1188   1.398       .  A
C1187      H1192   1.085       .  S
C1188      C1189   1.393       .  A
C1188      C1517   1.459       .  S
C1189      C1190   1.384       .  A
C1189      H1193   1.077       .  S
C1190      C1191   1.460       .  A
C1190      C1375   1.542       .  S
C1191      H1194   1.082       .  S
C1195      C1196   1.385       .  A
C1195      C1200   1.449       .  A
C1195      C1392   1.534       .  S
C1196      C1197   1.398       .  A
C1196      H1201   1.079       .  S
C1197      C1216   1.459       .  S
C1198      C1199   1.390       .  A
C1198      H1202   1.085       .  S
C1199      C1414   1.538       .  S
C1200      H1203   1.082       .  S
O1204     Cu1212   1.964       .  S
O1204      C1214   1.266   1_556  A
O1205     Cu2732   1.962       .  S
O1206     Cu1212   1.964   1_655  S
O1206      C1216   1.274   1_655  A
O1207     Cu2732   1.993       .  S
O1208     Cu2733   1.964       .  S
O1208      C1217   1.274       .  A
O1209     Cu1213   1.992   1_655  S
O1210     Cu2733   1.964       .  S
O1210      C1215   1.266       .  A
O1211     Cu1213   1.962       .  S
Cu1212     O2725   1.962   1_455  S
Cu1212     O2727   1.993       .  S
Cu1213     O2728   1.964       .  S
Cu1213     O2730   1.964   1_455  S
C1215      C1474   1.437       .  S
C1217      C1243   1.459       .  S
C1218      C1219   1.463       .  A
C1218      C1223   1.365       .  A
C1218      C1274   1.538       .  S
C1219      H1224   1.075       .  S
C1220      C1221   1.375       .  A
C1220      C1257   1.549       .  S
C1221      H1225   1.085       .  S
C1222      C1223   1.375       .  A
C1222      C1239   1.437       .  S
C1223      H1226   1.071       .  S
O1228     Cu1235   1.964   1_554  S
O1230     Cu1235   1.963       .  S
O1231     Cu1236   1.964   1_556  S
O1231      C1240   1.269       .  A
O1232      C1239   1.266       .  A
O1233     Cu1236   1.994       .  S
O1233      C1238   1.278   1_554  A
O1234      C1237   1.274       .  A
C1238      C1444   1.459       .  S
C1240      C1324   1.437       .  S
C1241      C1242   1.390       .  A
C1241      C1356   1.539       .  S
C1242      H1247   1.085       .  S
C1243      C1244   1.398       .  A
C1244      C1245   1.386       .  A
C1244      H1248   1.079       .  S
C1245      C1246   1.450       .  A
C1245      C1273   1.535       .  S
C1246      H1249   1.081       .  S
C1250      H1251   1.112       .  S
C1250      C1256   1.546       .  S
C1250      C1255   1.561       .  S
C1250      C1254   1.545       .  S
C1252      H1253   1.111       .  S
C1252      C1258   1.577       .  S
C1252      C1257   1.554       .  S
C1252      C1259   1.570       .  S
C1254      C1257   1.418       .  D
C1255      C1258   1.414       .  D
C1256      C1260   1.541       .  S
C1256      C1259   1.415       .  D
C1258      C1396   1.535       .  S
C1259      C1470   1.539       .  S
C1260      C1261   1.383       .  A
C1260      C1265   1.460       .  A
C1261      C1262   1.392       .  A
C1261      H1266   1.076       .  S
C1262      C1263   1.398       .  A
C1262      C1490   1.459       .  S
C1263      C1264   1.391       .  A
C1263      H1267   1.085       .  S
C1264      C1265   1.451       .  A
C1264      C1276   1.532       .  S
C1265      H1268   1.082       .  S
C1269      H1270   1.111       .  S
C1269      C1275   1.553       .  S
C1269      C1274   1.569       .  S
C1269      C1273   1.576       .  S
C1271      H1272   1.112       .  S
C1271      C1277   1.546       .  S
C1271      C1276   1.562       .  S
C1271      C1278   1.545       .  S
C1273      C1276   1.415       .  D
C1274      C1277   1.414       .  D
C1275      C1455   1.547       .  S
C1275      C1278   1.418       .  D
C1277      C1283   1.542       .  S
C1279      C1280   1.391       .  A
C1279      C1284   1.451       .  A
C1279      C1465   1.532       .  S
C1280      C1281   1.398       .  A
C1280      H1285   1.085       .  S
C1281      C1282   1.393       .  A
C1281      C1503   1.460       .  S
C1282      C1283   1.384       .  A
C1282      H1286   1.077       .  S
C1283      C1284   1.460       .  A
C1284      H1287   1.082       .  S
C1288      C1289   1.450       .  A
C1288      C1293   1.386       .  A
C1288      C1334   1.535       .  S
C1289      C2810   1.461   1_455  A
C1289      H1294   1.081       .  S
C1290      C2809   1.461       .  A
C1290      C1291   1.390       .  A
C1290      C1355   1.539       .  S
C1291      C2812   1.393       .  A
C1291      H1295   1.085       .  S
C1292      C2811   1.393   1_455  A
C1292      C1293   1.398       .  A
C1292      C1307   1.459       .  S
C1293      H1296   1.078       .  S
O1297     Cu1305   1.963       .  S
O1297      C1307   1.274       .  A
O1298      C1308   1.278       .  A
O1299     Cu1305   1.964       .  S
O1299      C1309   1.265   1_455  A
O1300      C1310   1.268       .  A
O1301      C2830   1.265       .  A
O1302     Cu1306   1.962       .  S
O1302      C2829   1.269       .  A
O1303      C2828   1.274       .  A
O1304     Cu1306   1.995       .  S
O1304      C2827   1.279       .  A
Cu1305    Cu2826   2.428   1_455  S
Cu1306    Cu2825   2.428       .  S
C1307      O2824   1.279   1_455  A
C1308      C1400   1.459   1_545  S
C1308      O2823   1.274   1_455  A
C1309      C1453   1.437       .  S
C1309      O2822   1.269       .  A
C1310      C1437   1.437       .  S
C1310      O2821   1.265   1_455  A
C1311      C1312   1.383       .  A
C1311      C1316   1.460       .  A
C1311      C1466   1.541       .  S
C1312      C1313   1.392       .  A
C1312      H1317   1.075       .  S
C1313      C1314   1.398       .  A
C1313      C1518   1.459       .  S
C1314      C1315   1.391       .  A
C1314      H1318   1.085       .  S
C1315      C1316   1.451       .  A
C1315      C1337   1.531       .  S
C1316      H1319   1.082       .  S
C1320      C1325   1.366       .  A
C1320      C1391   1.539       .  S
C1321      C1322   1.470       .  A
C1321      H1326   1.075       .  S
C1322      C1323   1.375       .  A
C1322      C1333   1.548       .  S
C1323      C1324   1.381       .  A
C1323      H1327   1.085       .  S
C1325      H1328   1.071       .  S
C1329      H1330   1.111       .  S
C1329      C1335   1.570       .  S
C1329      C1334   1.577       .  S
C1329      C1333   1.554       .  S
C1331      H1332   1.112       .  S
C1331      C1337   1.561       .  S
C1331      C1336   1.545       .  S
C1331      C1338   1.546       .  S
C1333      C1336   1.418       .  D
C1334      C1337   1.414       .  D
C1335      C1338   1.415       .  D
C1336      C1343   1.545       .  S
C1339      C1340   1.367       .  A
C1339      C1344   1.462       .  A
C1339      C1354   1.537       .  S
C1340      C1341   1.375       .  A
C1340      H1345   1.073       .  S
C1341      C1342   1.379       .  A
C1341      C1506   1.435       .  S
C1342      C1343   1.371       .  A
C1342      H1346   1.086       .  S
C1343      C1344   1.470       .  A
C1344      H1347   1.075       .  S
C1348      H1349   1.110       .  S
C1348      C1354   1.579       .  S
C1348      C1353   1.579       .  S
C1348      C1352   1.579       .  S
C1350      H1351   1.113       .  S
C1350      C1356   1.535       .  S
C1350      C1355   1.534       .  S
C1350      C1357   1.535       .  S
C1352      C1355   1.415       .  D
C1353      C1362   1.538       .  S
C1353      C1356   1.414       .  D
C1354      C1357   1.414       .  D
C1357      C1446   1.539       .  S
C1358      C1359   1.372       .  A
C1358      C1363   1.470       .  A
C1358      C1376   1.546       .  S
C1359      C1360   1.379       .  A
C1359      H1364   1.086       .  S
C1360      C1361   1.375       .  A
C1360      C1492   1.435   1_556  S
C1361      C1362   1.367       .  A
C1361      H1365   1.074       .  S
C1362      C1363   1.463       .  A
C1363      H1366   1.076       .  S
C1367      H1368   1.111       .  S
C1367      C1373   1.553       .  S
C1367      C1372   1.570       .  S
C1367      C1371   1.576       .  S
C1369      H1370   1.112       .  S
C1369      C1375   1.547       .  S
C1369      C1374   1.561       .  S
C1369      C1376   1.546       .  S
C1371      C1442   1.534       .  S
C1371      C1374   1.414       .  D
C1372      C1433   1.539       .  S
C1372      C1375   1.414       .  D
C1373      C1472   1.548       .  S
C1373      C1376   1.418       .  D
C1374      C1377   1.532       .  S
C1377      C1378   1.451       .  A
C1377      C1382   1.391       .  A
C1378      C1379   1.460       .  A
C1378      H1383   1.082       .  S
C1379      C1380   1.383       .  A
C1379      C1394   1.540       .  S
C1380      C1381   1.392       .  A
C1380      H1384   1.077       .  S
C1381      C1382   1.398       .  A
C1381      C1504   1.459       .  S
C1382      H1385   1.085       .  S
C1386      H1387   1.111       .  S
C1386      C1392   1.576       .  S
C1386      C1391   1.569       .  S
C1386      C1390   1.553       .  S
C1388      H1389   1.112       .  S
C1388      C1394   1.547       .  S
C1388      C1393   1.546       .  S
C1388      C1395   1.562       .  S
C1390      C1435   1.547       .  S
C1390      C1393   1.418       .  D
C1391      C1394   1.414       .  D
C1392      C1395   1.414       .  D
C1393      C1428   1.547       .  S
C1396      C2917   1.450       .  A
C1396      C1401   1.385       .  A
C1397      C2916   1.450   1_455  A
C1397      C1398   1.461       .  A
C1397      H1402   1.081       .  S
C1398      C1399   1.390       .  A
C1398      C1412   1.538       .  S
C1399      C1400   1.393       .  A
C1399      H1403   1.085       .  S
C1400      C2921   1.398   1_455  A
C1401      C2920   1.398       .  A
C1401      H1404   1.078       .  S
C1405      H1406   1.110       .  S
C1405      C1411   1.578       .  S
C1405      C1410   1.578       .  S
C1405      C1409   1.578       .  S
C1407      H1408   1.113       .  S
C1407      C1413   1.534       .  S
C1407      C1412   1.534       .  S
C1407      C1414   1.535       .  S
C1409      C1424   1.536       .  S
C1409      C1412   1.415       .  D
C1410      C1413   1.414       .  D
C1411      C1415   1.537       .  S
C1411      C1414   1.414       .  D
C1415      C1416   1.463       .  A
C1415      C1420   1.366       .  A
C1416      C1417   1.471       .  A
C1416      H1421   1.074       .  S
C1417      C1418   1.371       .  A
C1417      C1464   1.546       .  S
C1418      C1419   1.379       .  A
C1418      H1422   1.086       .  S
C1419      C1420   1.375       .  A
C1419      C1491   1.434       .  S
C1420      H1423   1.074       .  S
C1424      C1425   1.365       .  A
C1424      C1429   1.463       .  A
C1425      C1426   1.374       .  A
C1425      H1430   1.074       .  S
C1426      C1427   1.379       .  A
C1426      C1519   1.433       .  S
C1427      C1428   1.371       .  A
C1427      H1431   1.086       .  S
C1428      C1429   1.471       .  A
C1429      H1432   1.075       .  S
C1433      C2954   1.463       .  A
C1433      C1438   1.366       .  A
C1434      C2953   1.463   1_455  A
C1434      C1435   1.470       .  A
C1434      H1439   1.076       .  S
C1435      C1436   1.374       .  A
C1436      C1437   1.381       .  A
C1436      H1440   1.085       .  S
C1437      C2958   1.376   1_455  A
C1438      C2957   1.376       .  A
C1438      H1441   1.070       .  S
C1442      C1443   1.386       .  A
C1443      H1448   1.079       .  S
C1444      C1445   1.393       .  A
C1445      C1446   1.390       .  A
C1445      H1449   1.085       .  S
C1446      C1447   1.461       .  A
C1447      H1450   1.081       .  S
C1451      C1452   1.366       .  A
C1451      C1456   1.463       .  A
C1451      C1469   1.540       .  S
C1452      C1453   1.376   1_455  A
C1452      H1457   1.070       .  S
C1453      C2974   1.381       .  A
C1454      C2973   1.381       .  A
C1454      C1455   1.374       .  A
C1454      H1458   1.085       .  S
C1455      C2976   1.470       .  A
C1456      C2975   1.470   1_455  A
C1456      H1459   1.076       .  S
C1460      H1461   1.112       .  S
C1460      C1466   1.547       .  S
C1460      C1465   1.560       .  S
C1460      C1464   1.546       .  S
C1462      H1463   1.111       .  S
C1462      C1468   1.576       .  S
C1462      C1467   1.553       .  S
C1462      C1469   1.570       .  S
C1464      C1467   1.418       .  D
C1465      C1468   1.414       .  D
C1466      C1469   1.415       .  D
C1470      C1475   1.366       .  A
C1471      C1472   1.470       .  A
C1471      H1476   1.076       .  S
C1472      C1473   1.374       .  A
C1473      H1477   1.085       .  S
C1474      C1475   1.375       .  A
C1475      H1478   1.070       .  S
O1479     Cu1487   1.993       .  S
O1479      C1489   1.279       .  A
O1480      C1490   1.274       .  A
O1481      C1491   1.269       .  A
O1482     Cu1487   1.958   1_554  S
O1482      C1492   1.265       .  A
O1483     Cu1488   1.963       .  S
O1483      C1492   1.269       .  A
O1484      C1491   1.265       .  A
O1485      C1490   1.279       .  A
O1486     Cu1488   1.965   1_556  S
O1486      C1489   1.274       .  A
Cu1487    Cu1488   2.430   1_556  S
O1493     Cu1501   1.993       .  S
O1493      C1503   1.279       .  A
O1494      C1504   1.274       .  A
O1495      C1505   1.269       .  A
O1496     Cu1501   1.958       .  S
O1496      C1506   1.264       .  A
O1497     Cu1502   1.963       .  S
O1497      C1506   1.269       .  A
O1498      C1505   1.265       .  A
O1499      C1504   1.279       .  A
O1500     Cu1502   1.964       .  S
O1500      C1503   1.274       .  A
Cu1501    Cu1502   2.431       .  S
O1507     Cu3035   1.992       .  S
O1507      C1517   1.278       .  A
O1508     Cu1515   1.966       .  S
O1508      C1518   1.274       .  A
O1509     Cu1515   1.962   1_655  S
O1509      C1519   1.269   1_655  A
O1510     Cu3035   1.956       .  S
O1510      C1520   1.264       .  A
O1511     Cu3036   1.964       .  S
O1511      C1520   1.269       .  A
O1512     Cu1516   1.955   1_655  S
O1512      C1519   1.265   1_655  A
O1513     Cu1516   1.993       .  S
O1513      C1518   1.279       .  A
O1514     Cu3036   1.966       .  S
O1514      C1517   1.274       .  A
Cu1515     O3027   1.992   1_455  S
Cu1515     O3030   1.956       .  S
Cu1515    Cu1516   2.430       .  S
Cu1516     O3031   1.964       .  S
Cu1516     O3034   1.966   1_455  S
C1521      C1522   1.371       .  A
C1521      C1526   1.470       .  A
C1521      C1658   1.546       .  S
C1522      C1523   1.379       .  A
C1522      H1527   1.086       .  S
C1523      C1524   1.375       .  A
C1523      C1900   1.435   1_655  S
C1524      C1525   1.367       .  A
C1524      H1528   1.074       .  S
C1525      C1526   1.463       .  A
C1525      C1732   1.537       .  S
C1526      H1529   1.075       .  S
C1530      C1531   1.462       .  A
C1530      C1535   1.366       .  A
C1530      C1790   1.536       .  S
C1531      C1532   1.470       .  A
C1531      H1536   1.075       .  S
C1532      C1533   1.371       .  A
C1532      C1634   1.545       .  S
C1533      C1534   1.379       .  A
C1533      H1537   1.086       .  S
C1534      C1535   1.375       .  A
C1534      C1885   1.433       .  S
C1535      H1538   1.073       .  S
C1539      C1540   1.391       .  A
C1539      C1544   1.451       .  A
C1539      C1775   1.532       .  S
C1540      C1541   1.398       .  A
C1540      H1545   1.085       .  S
C1541      C1542   1.393       .  A
C1541      C1869   1.460       .  S
C1542      C1543   1.384       .  A
C1542      H1546   1.077       .  S
C1543      C1544   1.460       .  A
C1543      C1718   1.542       .  S
C1544      H1547   1.082       .  S
C1548      C1549   1.463       .  A
C1548      C1553   1.366       .  A
C1548      C1715   1.539       .  S
C1549      C1930   1.470       .  A
C1549      H1554   1.076       .  S
C1550      C1929   1.470       .  A
C1550      C1551   1.375       .  A
C1550      C1847   1.549       .  S
C1551      C1932   1.381       .  A
C1551      H1555   1.085       .  S
C1552      C1931   1.381       .  A
C1552      C1553   1.375       .  A
C1552      C1594   1.437       .  S
C1553      H1556   1.070       .  S
C1557      C1558   1.385       .  A
C1557      C1562   1.449       .  A
C1557      C1848   1.534       .  S
C1558      C1559   1.398       .  A
C1558      H1563   1.079       .  S
C1559      C2320   1.393   1_545  A
C1559      C1617   1.459   1_554  S
C1560      C2319   1.393       .  A
C1560      C1561   1.390       .  A
C1560      H1564   1.085       .  S
C1561      C2322   1.461       .  A
C1561      C1793   1.539       .  S
C1562      C2321   1.461   1_545  A
C1562      H1565   1.081       .  S
C1566      C1567   1.391       .  A
C1566      C1571   1.451       .  A
C1566      C1635   1.532       .  S
C1567      C1568   1.398       .  A
C1567      H1572   1.085       .  S
C1568      C1569   1.393       .  A
C1568      C1897   1.459       .  S
C1569      C1570   1.384       .  A
C1569      H1573   1.077       .  S
C1570      C1571   1.460       .  A
C1570      C1755   1.542       .  S
C1571      H1574   1.082       .  S
C1575      C1576   1.385       .  A
C1575      C1580   1.449       .  A
C1575      C1772   1.534       .  S
C1576      C1577   1.398       .  A
C1576      H1581   1.079       .  S
C1577      C1958   1.393       .  A
C1577      C1596   1.459       .  S
C1578      C1957   1.393   1_554  A
C1578      C1579   1.390       .  A
C1578      H1582   1.085       .  S
C1579      C1960   1.461   1_554  A
C1579      C1794   1.538       .  S
C1580      C1959   1.461       .  A
C1580      H1583   1.081       .  S
O1584     Cu1592   1.964       .  S
O1584      C1594   1.266       .  A
O1585      C1975   1.268       .  A
O1586     Cu1592   1.964       .  S
O1586      C1596   1.274       .  A
O1587      C1977   1.278       .  A
O1588      C1597   1.274       .  A
O1589     Cu1593   1.992       .  S
O1589      C1976   1.278   1_554  A
O1590      C1595   1.266   1_554  A
O1591     Cu1593   1.962       .  S
O1591      C1974   1.268       .  A
Cu1592    Cu1973   2.428       .  S
Cu1593    Cu1972   2.428   1_554  S
C1594      O1971   1.268       .  A
C1595      C1854   1.437       .  S
C1595      O1965   1.268       .  A
C1596      O1969   1.278       .  A
C1597      C1623   1.459   1_454  S
C1597      O1967   1.278   1_554  A
C1598      C1599   1.463       .  A
C1598      C1603   1.365       .  A
C1598      C1654   1.538       .  S
C1599      C2360   1.470   1_545  A
C1599      H1604   1.075       .  S
C1600      C2359   1.470       .  A
C1600      C1601   1.375       .  A
C1600      C1637   1.549       .  S
C1601      C2362   1.381       .  A
C1601      H1605   1.085       .  S
C1602      C2361   1.381   1_545  A
C1602      C1603   1.375       .  A
C1602      C1619   1.437       .  S
C1603      H1606   1.071       .  S
O1607     Cu1995   1.993       .  S
O1607      C2377   1.278       .  A
O1608     Cu1615   1.964       .  S
O1608      C2378   1.274       .  A
O1609     Cu1995   1.963   1_554  S
O1609      C2379   1.268       .  A
O1610     Cu1615   1.963       .  S
O1610      C2380   1.266       .  A
O1611     Cu1616   1.964       .  S
O1611      C1620   1.269       .  A
O1612     Cu1996   1.963       .  S
O1612      C1619   1.266       .  A
O1613     Cu1616   1.994       .  S
O1613      C1618   1.278       .  A
O1614     Cu1996   1.964   1_556  S
O1614      C1617   1.274       .  A
Cu1615     O1987   1.993       .  S
Cu1615     O1989   1.963       .  S
Cu1615    Cu2376   2.428       .  S
Cu1616     O1992   1.963       .  S
Cu1616     O1994   1.964       .  S
Cu1616    Cu2375   2.428   1_545  S
C1617      O2367   1.278   1_545  A
C1618      C1824   1.459       .  S
C1618      O2368   1.274   1_545  A
C1619      O2369   1.268   1_545  A
C1620      C1704   1.437       .  S
C1620      O2370   1.266   1_545  A
C1621      C1622   1.390       .  A
C1621      C2006   1.461       .  A
C1621      C1736   1.539       .  S
C1622      C2003   1.393       .  A
C1622      H1627   1.085       .  S
C1623      C2002   1.393       .  A
C1623      C1624   1.398   1_556  A
C1624      C1625   1.386       .  A
C1624      H1628   1.079       .  S
C1625      C1626   1.450   1_554  A
C1625      C1653   1.535       .  S
C1626      C2001   1.461       .  A
C1626      H1629   1.081       .  S
C1630      H1631   1.112       .  S
C1630      C1636   1.546       .  S
C1630      C1635   1.561       .  S
C1630      C1634   1.545       .  S
C1632      H1633   1.111       .  S
C1632      C1638   1.577       .  S
C1632      C1637   1.554       .  S
C1632      C1639   1.570       .  S
C1634      C1637   1.418       .  D
C1635      C1638   1.414       .  D
C1636      C1640   1.541       .  S
C1636      C1639   1.415       .  D
C1638      C1776   1.535       .  S
C1639      C1850   1.539       .  S
C1640      C1641   1.383       .  A
C1640      C1645   1.460       .  A
C1641      C1642   1.392       .  A
C1641      H1646   1.076       .  S
C1642      C1643   1.398       .  A
C1642      C1870   1.459       .  S
C1643      C1644   1.391       .  A
C1643      H1647   1.085       .  S
C1644      C1645   1.451       .  A
C1644      C1656   1.532       .  S
C1645      H1648   1.082       .  S
C1649      H1650   1.111       .  S
C1649      C1655   1.553       .  S
C1649      C1654   1.569       .  S
C1649      C1653   1.576       .  S
C1651      H1652   1.112       .  S
C1651      C1657   1.546       .  S
C1651      C1656   1.562       .  S
C1651      C1658   1.545       .  S
C1653      C1656   1.415       .  D
C1654      C1657   1.414       .  D
C1655      C1835   1.547       .  S
C1655      C1658   1.418       .  D
C1657      C1663   1.542       .  S
C1659      C1660   1.391       .  A
C1659      C1664   1.451       .  A
C1659      C1845   1.532       .  S
C1660      C1661   1.398       .  A
C1660      H1665   1.085       .  S
C1661      C1662   1.393       .  A
C1661      C1883   1.460       .  S
C1662      C1663   1.384       .  A
C1662      H1666   1.077       .  S
C1663      C1664   1.460       .  A
C1664      H1667   1.082       .  S
C1668      C1669   1.450       .  A
C1668      C1673   1.386       .  A
C1668      C1714   1.535       .  S
C1669      H1674   1.081       .  S
C1670      C1671   1.390       .  A
C1670      C1735   1.539       .  S
C1671      H1675   1.085       .  S
C1672      C1673   1.398       .  A
C1672      C1687   1.459       .  S
C1673      H1676   1.078       .  S
O1677     Cu1685   1.963       .  S
O1677      C1687   1.274       .  A
O1678     Cu2445   1.994       .  S
O1678      C1688   1.278       .  A
O1679     Cu1685   1.964       .  S
O1679      C1689   1.265       .  A
O1680     Cu2445   1.962       .  S
O1680      C1690   1.268       .  A
O1681     Cu2446   1.965       .  S
O1682     Cu1686   1.962       .  S
O1683     Cu2446   1.962       .  S
O1684     Cu1686   1.995   1_565  S
Cu1685     O2438   1.994       .  S
Cu1685     O2440   1.962   1_545  S
Cu1686     O2441   1.965   1_545  S
Cu1686     O2443   1.962       .  S
C1688      C1780   1.459       .  S
C1689      C1833   1.437       .  S
C1690      C1817   1.437       .  S
C1691      C1692   1.383       .  A
C1691      C1696   1.460       .  A
C1691      C1846   1.541       .  S
C1692      C1693   1.392       .  A
C1692      H1697   1.075       .  S
C1693      C1694   1.398       .  A
C1693      C1898   1.459       .  S
C1694      C1695   1.391       .  A
C1694      H1698   1.085       .  S
C1695      C1696   1.451       .  A
C1695      C1717   1.531       .  S
C1696      H1699   1.082       .  S
C1700      C2461   1.463       .  A
C1700      C1705   1.366       .  A
C1700      C1771   1.539       .  S
C1701      C2460   1.463   1_545  A
C1701      C1702   1.470       .  A
C1701      H1706   1.075       .  S
C1702      C1703   1.375       .  A
C1702      C1713   1.548       .  S
C1703      C1704   1.381       .  A
C1703      H1707   1.085       .  S
C1704      C2465   1.375   1_545  A
C1705      C2464   1.375       .  A
C1705      H1708   1.071       .  S
C1709      H1710   1.111       .  S
C1709      C1715   1.570       .  S
C1709      C1714   1.577       .  S
C1709      C1713   1.554       .  S
C1711      H1712   1.112       .  S
C1711      C1717   1.561       .  S
C1711      C1716   1.545       .  S
C1711      C1718   1.546       .  S
C1713      C1716   1.418       .  D
C1714      C1717   1.414       .  D
C1715      C1718   1.415       .  D
C1716      C1723   1.545       .  S
C1719      C1720   1.367       .  A
C1719      C1724   1.462       .  A
C1719      C1734   1.537       .  S
C1720      C1721   1.375       .  A
C1720      H1725   1.073       .  S
C1721      C1722   1.379       .  A
C1721      C1886   1.435       .  S
C1722      C1723   1.371       .  A
C1722      H1726   1.086       .  S
C1723      C1724   1.470       .  A
C1724      H1727   1.075       .  S
C1728      H1729   1.110       .  S
C1728      C1734   1.579       .  S
C1728      C1733   1.579       .  S
C1728      C1732   1.579       .  S
C1730      H1731   1.113       .  S
C1730      C1736   1.535       .  S
C1730      C1735   1.534       .  S
C1730      C1737   1.535       .  S
C1732      C1735   1.415       .  D
C1733      C1742   1.538       .  S
C1733      C1736   1.414       .  D
C1734      C1737   1.414       .  D
C1737      C1826   1.539       .  S
C1738      C1739   1.372       .  A
C1738      C1743   1.470       .  A
C1738      C1756   1.546       .  S
C1739      C1740   1.379       .  A
C1739      H1744   1.086       .  S
C1740      C1741   1.375       .  A
C1740      C1872   1.435       .  S
C1741      C1742   1.367       .  A
C1741      H1745   1.074       .  S
C1742      C1743   1.463       .  A
C1743      H1746   1.076       .  S
C1747      H1748   1.111       .  S
C1747      C1753   1.553       .  S
C1747      C1752   1.570       .  S
C1747      C1751   1.576       .  S
C1749      H1750   1.112       .  S
C1749      C1755   1.547       .  S
C1749      C1754   1.561       .  S
C1749      C1756   1.546       .  S
C1751      C1822   1.534       .  S
C1751      C1754   1.414       .  D
C1752      C1813   1.539       .  S
C1752      C1755   1.414       .  D
C1753      C1852   1.548       .  S
C1753      C1756   1.418       .  D
C1754      C1757   1.532       .  S
C1757      C1758   1.451       .  A
C1757      C1762   1.391       .  A
C1758      C1759   1.460       .  A
C1758      H1763   1.082       .  S
C1759      C1760   1.383       .  A
C1759      C1774   1.540       .  S
C1760      C1761   1.392       .  A
C1760      H1764   1.077       .  S
C1761      C1762   1.398       .  A
C1761      C1884   1.459       .  S
C1762      H1765   1.085       .  S
C1766      H1767   1.111       .  S
C1766      C1772   1.576       .  S
C1766      C1771   1.569       .  S
C1766      C1770   1.553       .  S
C1768      H1769   1.112       .  S
C1768      C1774   1.547       .  S
C1768      C1773   1.546       .  S
C1768      C1775   1.562       .  S
C1770      C1815   1.547       .  S
C1770      C1773   1.418       .  D
C1771      C1774   1.414       .  D
C1772      C1775   1.414       .  D
C1773      C1808   1.547       .  S
C1776      C1781   1.385       .  A
C1777      C1778   1.461       .  A
C1777      H1782   1.081       .  S
C1778      C1779   1.390       .  A
C1778      C1792   1.538       .  S
C1779      C1780   1.393       .  A
C1779      H1783   1.085       .  S
C1781      H1784   1.078       .  S
C1785      H1786   1.110       .  S
C1785      C1791   1.578       .  S
C1785      C1790   1.578       .  S
C1785      C1789   1.578       .  S
C1787      H1788   1.113       .  S
C1787      C1793   1.534       .  S
C1787      C1792   1.534       .  S
C1787      C1794   1.535       .  S
C1789      C1804   1.536       .  S
C1789      C1792   1.415       .  D
C1790      C1793   1.414       .  D
C1791      C1795   1.537       .  S
C1791      C1794   1.414       .  D
C1795      C1796   1.463       .  A
C1795      C1800   1.366       .  A
C1796      C1797   1.471       .  A
C1796      H1801   1.074       .  S
C1797      C1798   1.371       .  A
C1797      C1844   1.546       .  S
C1798      C1799   1.379       .  A
C1798      H1802   1.086       .  S
C1799      C1800   1.375       .  A
C1799      C1871   1.434   1_554  S
C1800      H1803   1.074       .  S
C1804      C1805   1.365       .  A
C1804      C1809   1.463       .  A
C1805      C1806   1.374       .  A
C1805      H1810   1.074       .  S
C1806      C1807   1.379       .  A
C1806      C1899   1.433       .  S
C1807      C1808   1.371       .  A
C1807      H1811   1.086       .  S
C1808      C1809   1.471       .  A
C1809      H1812   1.075       .  S
C1813      C1818   1.366       .  A
C1814      C1815   1.470       .  A
C1814      H1819   1.076       .  S
C1815      C1816   1.374       .  A
C1816      C1817   1.381       .  A
C1816      H1820   1.085       .  S
C1818      H1821   1.070       .  S
C1822      C1823   1.386       .  A
C1822      C2587   1.450       .  A
C1823      C2584   1.398       .  A
C1823      H1828   1.079       .  S
C1824      C2583   1.398   1_545  A
C1824      C1825   1.393       .  A
C1825      C1826   1.390       .  A
C1825      H1829   1.085       .  S
C1826      C1827   1.461       .  A
C1827      C2582   1.450   1_545  A
C1827      H1830   1.081       .  S
C1831      C1832   1.366       .  A
C1831      C1836   1.463       .  A
C1831      C1849   1.540       .  S
C1832      C1833   1.376       .  A
C1832      H1837   1.070       .  S
C1834      C1835   1.374       .  A
C1834      H1838   1.085       .  S
C1836      H1839   1.076       .  S
C1840      H1841   1.112       .  S
C1840      C1846   1.547       .  S
C1840      C1845   1.560       .  S
C1840      C1844   1.546       .  S
C1842      H1843   1.111       .  S
C1842      C1848   1.576       .  S
C1842      C1847   1.553       .  S
C1842      C1849   1.570       .  S
C1844      C1847   1.418       .  D
C1845      C1848   1.414       .  D
C1846      C1849   1.415       .  D
C1850      C2231   1.463   1_554  A
C1850      C1855   1.366       .  A
C1851      C2230   1.463       .  A
C1851      C1852   1.470       .  A
C1851      H1856   1.076       .  S
C1852      C1853   1.374       .  A
C1853      C2234   1.381       .  A
C1853      H1857   1.085       .  S
C1854      C2233   1.381       .  A
C1854      C1855   1.375   1_556  A
C1855      H1858   1.070       .  S
O1859     Cu1867   1.993       .  S
O1859      C1869   1.279       .  A
O1860     Cu2247   1.965   1_554  S
O1860      C1870   1.274       .  A
O1861     Cu2247   1.961       .  S
O1861      C1871   1.269       .  A
O1862     Cu1867   1.958       .  S
O1862      C1872   1.265       .  A
O1863     Cu1868   1.963       .  S
O1863      C1872   1.269       .  A
O1864     Cu2248   1.957   1_556  S
O1864      C1871   1.265       .  A
O1865     Cu2248   1.994       .  S
O1865      C1870   1.279       .  A
O1866     Cu1868   1.965       .  S
O1866      C1869   1.274       .  A
Cu1867     O2240   1.965       .  S
Cu1867     O2241   1.961       .  S
Cu1867    Cu1868   2.430       .  S
Cu1868     O2244   1.957       .  S
Cu1868     O2245   1.994       .  S
O1873     Cu1881   1.993       .  S
O1873      C1883   1.279       .  A
O1874     Cu2641   1.965       .  S
O1874      C1884   1.274       .  A
O1875     Cu2641   1.961       .  S
O1875      C1885   1.269       .  A
O1876     Cu1881   1.958   1_565  S
O1876      C1886   1.264   1_565  A
O1877     Cu1882   1.963   1_565  S
O1877      C1886   1.269   1_565  A
O1878     Cu2642   1.957       .  S
O1878      C1885   1.265       .  A
O1879     Cu2642   1.994       .  S
O1879      C1884   1.279       .  A
O1880     Cu1882   1.964       .  S
O1880      C1883   1.274       .  A
Cu1881     O2634   1.965   1_545  S
Cu1881     O2635   1.961       .  S
Cu1881    Cu1882   2.431       .  S
Cu1882     O2638   1.957       .  S
Cu1882     O2639   1.994   1_545  S
O1887      C1897   1.278       .  A
O1888     Cu1895   1.966       .  S
O1888      C1898   1.274       .  A
O1889     Cu1895   1.962       .  S
O1889      C1899   1.269       .  A
O1890      C1900   1.264       .  A
O1891      C1900   1.269       .  A
O1892     Cu1896   1.955       .  S
O1892      C1899   1.265       .  A
O1893     Cu1896   1.993       .  S
O1893      C1898   1.279       .  A
O1894      C1897   1.274       .  A
Cu1895    Cu1896   2.430       .  S
C1901      C1902   1.371       .  A
C1901      C1906   1.470       .  A
C1901      C2038   1.546       .  S
C1902      C1903   1.379       .  A
C1902      H1907   1.086       .  S
C1903      C1904   1.375       .  A
C1903      C2280   1.435   1_655  S
C1904      C1905   1.367       .  A
C1904      H1908   1.074       .  S
C1905      C1906   1.463       .  A
C1905      C2112   1.537       .  S
C1906      H1909   1.075       .  S
C1910      C1911   1.462       .  A
C1910      C1915   1.366       .  A
C1910      C2170   1.536       .  S
C1911      C1912   1.470       .  A
C1911      H1916   1.075       .  S
C1912      C1913   1.371       .  A
C1912      C2014   1.545       .  S
C1913      C1914   1.379       .  A
C1913      H1917   1.086       .  S
C1914      C1915   1.375       .  A
C1914      C2265   1.433       .  S
C1915      H1918   1.074       .  S
C1919      C1920   1.391       .  A
C1919      C1924   1.451       .  A
C1919      C2155   1.532       .  S
C1920      C1921   1.398       .  A
C1920      H1925   1.085       .  S
C1921      C1922   1.393       .  A
C1921      C2249   1.460       .  S
C1922      C1923   1.384       .  A
C1922      H1926   1.077       .  S
C1923      C1924   1.460       .  A
C1923      C2098   1.542       .  S
C1924      H1927   1.082       .  S
C1928      C1929   1.463   1_556  A
C1928      C1933   1.366       .  A
C1928      C2095   1.539       .  S
C1929      H1934   1.076   1_554  S
C1930      C1931   1.375       .  A
C1930      C2227   1.549       .  S
C1931      H1935   1.085       .  S
C1932      C1933   1.375   1_554  A
C1932      C1974   1.437       .  S
C1933      H1936   1.070       .  S
C1937      C1938   1.385       .  A
C1937      C1942   1.449       .  A
C1937      C2228   1.534       .  S
C1938      C1939   1.398       .  A
C1938      H1943   1.079       .  S
C1939      C2700   1.393   1_545  A
C1939      C1997   1.459       .  S
C1940      C2699   1.393       .  A
C1940      C1941   1.390       .  A
C1940      H1944   1.085       .  S
C1941      C2702   1.461       .  A
C1941      C2173   1.539       .  S
C1942      C2701   1.461   1_545  A
C1942      H1945   1.081       .  S
C1946      C1947   1.391       .  A
C1946      C1951   1.451       .  A
C1946      C2015   1.532       .  S
C1947      C1948   1.398       .  A
C1947      H1952   1.085       .  S
C1948      C1949   1.393       .  A
C1948      C2277   1.459       .  S
C1949      C1950   1.384       .  A
C1949      H1953   1.077       .  S
C1950      C1951   1.460       .  A
C1950      C2135   1.542       .  S
C1951      H1954   1.082       .  S
C1955      C1956   1.385       .  A
C1955      C1960   1.449       .  A
C1955      C2152   1.534       .  S
C1956      C1957   1.398       .  A
C1956      H1961   1.079       .  S
C1957      C1976   1.459       .  S
C1958      C1959   1.390       .  A
C1958      H1962   1.085       .  S
C1959      C2174   1.538       .  S
C1960      H1963   1.081       .  S
O1964     Cu1972   1.964       .  S
O1964      C1974   1.266   1_556  A
O1966     Cu1972   1.964       .  S
O1966      C1976   1.274       .  A
O1968      C1977   1.274       .  A
O1969     Cu1973   1.992       .  S
O1970      C1975   1.266       .  A
O1971     Cu1973   1.962       .  S
C1975      C2234   1.437       .  S
C1977      C2003   1.459   1_455  S
C1978      C1979   1.463       .  A
C1978      C1983   1.365       .  A
C1978      C2034   1.538       .  S
C1979      C2740   1.470   1_545  A
C1979      H1984   1.075       .  S
C1980      C2739   1.470       .  A
C1980      C1981   1.375       .  A
C1980      C2017   1.549       .  S
C1981      C2742   1.381       .  A
C1981      H1985   1.085       .  S
C1982      C2741   1.381   1_545  A
C1982      C1983   1.375       .  A
C1982      C1999   1.437       .  S
C1983      H1986   1.071       .  S
O1987      C2757   1.278       .  A
O1988     Cu1995   1.964   1_554  S
O1988      C2758   1.274   1_554  A
O1989      C2759   1.268       .  A
O1990     Cu1995   1.963       .  S
O1990      C2760   1.266       .  A
O1991     Cu1996   1.964   1_556  S
O1991      C2000   1.269       .  A
O1992      C1999   1.266       .  A
O1993     Cu1996   1.994       .  S
O1993      C1998   1.278   1_554  A
O1994      C1997   1.274       .  A
Cu1995    Cu2756   2.428   1_556  S
Cu1996    Cu2755   2.428   1_544  S
C1997      O2747   1.278   1_545  A
C1998      C2204   1.459       .  S
C1998      O2748   1.274   1_546  A
C1999      O2749   1.268   1_545  A
C2000      C2084   1.437       .  S
C2000      O2750   1.266   1_545  A
C2001      C2002   1.390       .  A
C2001      C2116   1.539       .  S
C2002      H2007   1.085       .  S
C2003      C2004   1.398       .  A
C2004      C2005   1.386       .  A
C2004      H2008   1.079       .  S
C2005      C2006   1.450       .  A
C2005      C2033   1.535       .  S
C2006      H2009   1.081       .  S
C2010      H2011   1.112       .  S
C2010      C2016   1.546       .  S
C2010      C2015   1.561       .  S
C2010      C2014   1.545       .  S
C2012      H2013   1.111       .  S
C2012      C2018   1.577       .  S
C2012      C2017   1.554       .  S
C2012      C2019   1.570       .  S
C2014      C2017   1.418       .  D
C2015      C2018   1.414       .  D
C2016      C2020   1.541       .  S
C2016      C2019   1.415       .  D
C2018      C2156   1.535       .  S
C2019      C2230   1.539       .  S
C2020      C2021   1.383       .  A
C2020      C2025   1.460       .  A
C2021      C2022   1.392       .  A
C2021      H2026   1.076       .  S
C2022      C2023   1.398       .  A
C2022      C2250   1.459       .  S
C2023      C2024   1.391       .  A
C2023      H2027   1.085       .  S
C2024      C2025   1.451       .  A
C2024      C2036   1.532       .  S
C2025      H2028   1.082       .  S
C2029      H2030   1.111       .  S
C2029      C2035   1.553       .  S
C2029      C2034   1.569       .  S
C2029      C2033   1.576       .  S
C2031      H2032   1.112       .  S
C2031      C2037   1.546       .  S
C2031      C2036   1.562       .  S
C2031      C2038   1.545       .  S
C2033      C2036   1.415       .  D
C2034      C2037   1.414       .  D
C2035      C2215   1.547       .  S
C2035      C2038   1.418       .  D
C2037      C2043   1.542       .  S
C2039      C2040   1.391       .  A
C2039      C2044   1.451       .  A
C2039      C2225   1.532       .  S
C2040      C2041   1.398       .  A
C2040      H2045   1.085       .  S
C2041      C2042   1.393       .  A
C2041      C2263   1.460       .  S
C2042      C2043   1.384       .  A
C2042      H2046   1.077       .  S
C2043      C2044   1.460       .  A
C2044      H2047   1.082       .  S
C2048      C2049   1.450       .  A
C2048      C2053   1.386       .  A
C2048      C2094   1.535       .  S
C2049      H2054   1.081       .  S
C2050      C2051   1.390       .  A
C2050      C2115   1.539       .  S
C2051      H2055   1.085       .  S
C2052      C2053   1.398       .  A
C2052      C2067   1.459       .  S
C2053      H2056   1.078       .  S
O2057     Cu2065   1.963       .  S
O2057      C2067   1.274       .  A
O2058     Cu2825   1.994       .  S
O2058      C2068   1.278       .  A
O2059     Cu2065   1.964       .  S
O2059      C2069   1.265       .  A
O2060     Cu2825   1.962       .  S
O2060      C2070   1.268       .  A
O2061     Cu2826   1.965       .  S
O2062     Cu2066   1.962       .  S
O2063     Cu2826   1.962       .  S
O2064     Cu2066   1.995   1_565  S
Cu2065     O2818   1.994       .  S
Cu2065     O2820   1.962   1_545  S
Cu2066     O2821   1.965   1_545  S
Cu2066     O2823   1.962       .  S
C2068      C2160   1.459       .  S
C2069      C2213   1.437       .  S
C2070      C2197   1.437       .  S
C2071      C2072   1.383       .  A
C2071      C2076   1.460       .  A
C2071      C2226   1.541       .  S
C2072      C2073   1.392       .  A
C2072      H2077   1.075       .  S
C2073      C2074   1.398       .  A
C2073      C2278   1.459       .  S
C2074      C2075   1.391       .  A
C2074      H2078   1.085       .  S
C2075      C2076   1.451       .  A
C2075      C2097   1.531       .  S
C2076      H2079   1.082       .  S
C2080      C2841   1.463       .  A
C2080      C2085   1.366       .  A
C2080      C2151   1.539       .  S
C2081      C2840   1.463   1_545  A
C2081      C2082   1.470       .  A
C2081      H2086   1.075       .  S
C2082      C2083   1.375       .  A
C2082      C2093   1.548       .  S
C2083      C2084   1.381       .  A
C2083      H2087   1.085       .  S
C2084      C2845   1.375   1_545  A
C2085      C2844   1.375       .  A
C2085      H2088   1.071       .  S
C2089      H2090   1.111       .  S
C2089      C2095   1.570       .  S
C2089      C2094   1.577       .  S
C2089      C2093   1.554       .  S
C2091      H2092   1.112       .  S
C2091      C2097   1.561       .  S
C2091      C2096   1.545       .  S
C2091      C2098   1.546       .  S
C2093      C2096   1.418       .  D
C2094      C2097   1.414       .  D
C2095      C2098   1.415       .  D
C2096      C2103   1.545       .  S
C2099      C2100   1.367       .  A
C2099      C2104   1.462       .  A
C2099      C2114   1.537       .  S
C2100      C2101   1.375       .  A
C2100      H2105   1.073       .  S
C2101      C2102   1.379       .  A
C2101      C2266   1.435       .  S
C2102      C2103   1.371       .  A
C2102      H2106   1.086       .  S
C2103      C2104   1.470       .  A
C2104      H2107   1.075       .  S
C2108      H2109   1.110       .  S
C2108      C2114   1.579       .  S
C2108      C2113   1.579       .  S
C2108      C2112   1.579       .  S
C2110      H2111   1.113       .  S
C2110      C2116   1.535       .  S
C2110      C2115   1.534       .  S
C2110      C2117   1.535       .  S
C2112      C2115   1.415       .  D
C2113      C2122   1.538       .  S
C2113      C2116   1.414       .  D
C2114      C2117   1.414       .  D
C2117      C2206   1.539       .  S
C2118      C2119   1.372       .  A
C2118      C2123   1.470       .  A
C2118      C2136   1.546       .  S
C2119      C2120   1.379       .  A
C2119      H2124   1.086       .  S
C2120      C2121   1.375       .  A
C2120      C2252   1.435   1_556  S
C2121      C2122   1.367       .  A
C2121      H2125   1.074       .  S
C2122      C2123   1.463       .  A
C2123      H2126   1.076       .  S
C2127      H2128   1.111       .  S
C2127      C2133   1.553       .  S
C2127      C2132   1.570       .  S
C2127      C2131   1.576       .  S
C2129      H2130   1.112       .  S
C2129      C2135   1.547       .  S
C2129      C2134   1.561       .  S
C2129      C2136   1.546       .  S
C2131      C2202   1.534       .  S
C2131      C2134   1.414       .  D
C2132      C2193   1.539       .  S
C2132      C2135   1.414       .  D
C2133      C2232   1.548       .  S
C2133      C2136   1.418       .  D
C2134      C2137   1.532       .  S
C2137      C2138   1.451       .  A
C2137      C2142   1.391       .  A
C2138      C2139   1.460       .  A
C2138      H2143   1.082       .  S
C2139      C2140   1.383       .  A
C2139      C2154   1.540       .  S
C2140      C2141   1.392       .  A
C2140      H2144   1.077       .  S
C2141      C2142   1.398       .  A
C2141      C2264   1.459       .  S
C2142      H2145   1.085       .  S
C2146      H2147   1.111       .  S
C2146      C2152   1.576       .  S
C2146      C2151   1.569       .  S
C2146      C2150   1.553       .  S
C2148      H2149   1.112       .  S
C2148      C2154   1.547       .  S
C2148      C2153   1.546       .  S
C2148      C2155   1.562       .  S
C2150      C2195   1.547       .  S
C2150      C2153   1.418       .  D
C2151      C2154   1.414       .  D
C2152      C2155   1.414       .  D
C2153      C2188   1.547       .  S
C2156      C2161   1.385       .  A
C2157      C2158   1.461       .  A
C2157      H2162   1.081       .  S
C2158      C2159   1.390       .  A
C2158      C2172   1.538       .  S
C2159      C2160   1.393       .  A
C2159      H2163   1.085       .  S
C2161      H2164   1.078       .  S
C2165      H2166   1.110       .  S
C2165      C2171   1.578       .  S
C2165      C2170   1.578       .  S
C2165      C2169   1.578       .  S
C2167      H2168   1.113       .  S
C2167      C2173   1.534       .  S
C2167      C2172   1.534       .  S
C2167      C2174   1.535       .  S
C2169      C2184   1.536       .  S
C2169      C2172   1.415       .  D
C2170      C2173   1.414       .  D
C2171      C2175   1.537       .  S
C2171      C2174   1.414       .  D
C2175      C2176   1.463       .  A
C2175      C2180   1.366       .  A
C2176      C2177   1.471       .  A
C2176      H2181   1.074       .  S
C2177      C2178   1.371       .  A
C2177      C2224   1.546       .  S
C2178      C2179   1.379       .  A
C2178      H2182   1.086       .  S
C2179      C2180   1.375       .  A
C2179      C2251   1.434       .  S
C2180      H2183   1.074       .  S
C2184      C2185   1.365       .  A
C2184      C2189   1.463       .  A
C2185      C2186   1.374       .  A
C2185      H2190   1.074       .  S
C2186      C2187   1.379       .  A
C2186      C2279   1.433       .  S
C2187      C2188   1.371       .  A
C2187      H2191   1.086       .  S
C2188      C2189   1.471       .  A
C2189      H2192   1.075       .  S
C2193      C2198   1.366       .  A
C2194      C2195   1.470       .  A
C2194      H2199   1.076       .  S
C2195      C2196   1.374       .  A
C2196      C2197   1.381       .  A
C2196      H2200   1.085       .  S
C2198      H2201   1.070       .  S
C2202      C2203   1.386       .  A
C2202      C2967   1.450       .  A
C2203      C2964   1.398       .  A
C2203      H2208   1.079       .  S
C2204      C2963   1.398   1_545  A
C2204      C2205   1.393       .  A
C2205      C2206   1.390       .  A
C2205      H2209   1.085       .  S
C2206      C2207   1.461       .  A
C2207      C2962   1.450   1_545  A
C2207      H2210   1.081       .  S
C2211      C2212   1.366       .  A
C2211      C2216   1.463       .  A
C2211      C2229   1.540       .  S
C2212      C2213   1.376       .  A
C2212      H2217   1.070       .  S
C2214      C2215   1.374       .  A
C2214      H2218   1.085       .  S
C2216      H2219   1.076       .  S
C2220      H2221   1.112       .  S
C2220      C2226   1.547       .  S
C2220      C2225   1.560       .  S
C2220      C2224   1.546       .  S
C2222      H2223   1.111       .  S
C2222      C2228   1.576       .  S
C2222      C2227   1.553       .  S
C2222      C2229   1.570       .  S
C2224      C2227   1.418       .  D
C2225      C2228   1.414       .  D
C2226      C2229   1.415       .  D
C2230      C2235   1.366       .  A
C2231      C2232   1.470       .  A
C2231      H2236   1.076       .  S
C2232      C2233   1.374       .  A
C2233      H2237   1.085       .  S
C2234      C2235   1.375       .  A
C2235      H2238   1.070       .  S
O2239     Cu2247   1.993       .  S
O2239      C2249   1.279       .  A
O2240      C2250   1.274       .  A
O2241      C2251   1.269       .  A
O2242     Cu2247   1.958   1_554  S
O2242      C2252   1.265       .  A
O2243     Cu2248   1.963       .  S
O2243      C2252   1.269       .  A
O2244      C2251   1.265       .  A
O2245      C2250   1.279       .  A
O2246     Cu2248   1.965   1_556  S
O2246      C2249   1.274       .  A
Cu2247    Cu2248   2.430   1_556  S
O2253     Cu2261   1.993       .  S
O2253      C2263   1.279       .  A
O2254     Cu3021   1.965       .  S
O2254      C2264   1.274       .  A
O2255     Cu3021   1.961       .  S
O2255      C2265   1.269       .  A
O2256     Cu2261   1.958   1_565  S
O2256      C2266   1.264   1_565  A
O2257     Cu2262   1.963   1_565  S
O2257      C2266   1.269   1_565  A
O2258     Cu3022   1.957       .  S
O2258      C2265   1.265       .  A
O2259     Cu3022   1.994       .  S
O2259      C2264   1.279       .  A
O2260     Cu2262   1.964       .  S
O2260      C2263   1.274       .  A
Cu2261     O3014   1.965   1_545  S
Cu2261     O3015   1.961       .  S
Cu2261    Cu2262   2.431       .  S
Cu2262     O3018   1.957       .  S
Cu2262     O3019   1.994   1_545  S
O2267      C2277   1.278       .  A
O2268     Cu2275   1.966       .  S
O2268      C2278   1.274       .  A
O2269     Cu2275   1.962       .  S
O2269      C2279   1.269       .  A
O2270      C2280   1.264       .  A
O2271      C2280   1.269       .  A
O2272     Cu2276   1.955       .  S
O2272      C2279   1.265       .  A
O2273     Cu2276   1.993       .  S
O2273      C2278   1.279       .  A
O2274      C2277   1.274       .  A
Cu2275    Cu2276   2.430       .  S
C2281      C2282   1.371       .  A
C2281      C2286   1.470       .  A
C2281      C2418   1.546       .  S
C2282      C2283   1.379       .  A
C2282      H2287   1.086       .  S
C2283      C2284   1.375       .  A
C2283      C2660   1.435   1_655  S
C2284      C2285   1.367       .  A
C2284      H2288   1.074       .  S
C2285      C2286   1.463       .  A
C2285      C2492   1.537       .  S
C2286      H2289   1.075       .  S
C2290      C2291   1.462       .  A
C2290      C2295   1.366       .  A
C2290      C2550   1.536       .  S
C2291      C2292   1.470       .  A
C2291      H2296   1.075       .  S
C2292      C2293   1.371       .  A
C2292      C2394   1.545       .  S
C2293      C2294   1.379       .  A
C2293      H2297   1.086       .  S
C2294      C2295   1.375       .  A
C2294      C2645   1.433   1_565  S
C2295      H2298   1.073       .  S
C2299      C2300   1.391       .  A
C2299      C2304   1.451       .  A
C2299      C2535   1.532       .  S
C2300      C2301   1.398       .  A
C2300      H2305   1.085       .  S
C2301      C2302   1.393       .  A
C2301      C2629   1.460       .  S
C2302      C2303   1.384       .  A
C2302      H2306   1.077       .  S
C2303      C2304   1.460       .  A
C2303      C2478   1.542       .  S
C2304      H2307   1.082       .  S
C2308      C2309   1.463       .  A
C2308      C2313   1.366       .  A
C2308      C2475   1.539       .  S
C2309      C2690   1.470       .  A
C2309      H2314   1.076       .  S
C2310      C2689   1.470       .  A
C2310      C2311   1.375       .  A
C2310      C2607   1.549       .  S
C2311      C2692   1.381       .  A
C2311      H2315   1.085       .  S
C2312      C2691   1.381       .  A
C2312      C2313   1.375       .  A
C2312      C2354   1.437       .  S
C2313      H2316   1.070       .  S
C2317      C2318   1.385       .  A
C2317      C2322   1.449       .  A
C2317      C2608   1.534       .  S
C2318      C2319   1.398       .  A
C2318      H2323   1.079       .  S
C2319      C2377   1.459   1_554  S
C2320      C2321   1.390       .  A
C2320      H2324   1.085       .  S
C2321      C2553   1.539       .  S
C2322      H2325   1.082       .  S
C2326      C2327   1.391       .  A
C2326      C2331   1.451       .  A
C2326      C2395   1.532       .  S
C2327      C2328   1.398       .  A
C2327      H2332   1.085       .  S
C2328      C2329   1.393       .  A
C2328      C2657   1.459       .  S
C2329      C2330   1.384       .  A
C2329      H2333   1.077       .  S
C2330      C2331   1.460       .  A
C2330      C2515   1.542       .  S
C2331      H2334   1.082       .  S
C2335      C2336   1.385       .  A
C2335      C2340   1.449       .  A
C2335      C2532   1.534       .  S
C2336      C2337   1.398       .  A
C2336      H2341   1.079       .  S
C2337      C2718   1.393       .  A
C2337      C2356   1.459       .  S
C2338      C2717   1.393   1_554  A
C2338      C2339   1.390       .  A
C2338      H2342   1.085       .  S
C2339      C2720   1.461   1_554  A
C2339      C2554   1.538       .  S
C2340      C2719   1.461       .  A
C2340      H2343   1.082       .  S
O2344     Cu2352   1.964       .  S
O2344      C2354   1.266       .  A
O2345      C2735   1.268       .  A
O2346     Cu2352   1.964       .  S
O2346      C2356   1.274       .  A
O2347      C2737   1.278       .  A
O2348      C2357   1.274       .  A
O2349     Cu2353   1.992       .  S
O2349      C2736   1.278   1_554  A
O2350      C2355   1.266   1_554  A
O2351     Cu2353   1.962       .  S
O2351      C2734   1.268       .  A
Cu2352    Cu2733   2.428       .  S
Cu2353    Cu2732   2.428   1_554  S
C2354      O2731   1.268       .  A
C2355      C2614   1.437       .  S
C2355      O2725   1.268       .  A
C2356      O2729   1.278       .  A
C2357      C2383   1.459   1_454  S
C2357      O2727   1.278   1_554  A
C2358      C2359   1.463       .  A
C2358      C2363   1.365       .  A
C2358      C2414   1.538       .  S
C2359      H2364   1.075       .  S
C2360      C2361   1.375       .  A
C2360      C2397   1.549       .  S
C2361      H2365   1.085       .  S
C2362      C2363   1.375       .  A
C2362      C2379   1.437       .  S
C2363      H2366   1.071       .  S
O2367     Cu2755   1.993       .  S
O2368     Cu2375   1.964       .  S
O2369     Cu2755   1.963   1_554  S
O2370     Cu2375   1.963       .  S
O2371     Cu2376   1.964       .  S
O2371      C2380   1.269       .  A
O2372     Cu2756   1.963       .  S
O2372      C2379   1.266       .  A
O2373     Cu2376   1.994       .  S
O2373      C2378   1.278       .  A
O2374     Cu2756   1.964   1_556  S
O2374      C2377   1.274       .  A
Cu2375     O2747   1.993       .  S
Cu2375     O2749   1.963       .  S
Cu2376     O2752   1.963       .  S
Cu2376     O2754   1.964       .  S
C2378      C2584   1.459       .  S
C2380      C2464   1.437       .  S
C2381      C2382   1.390       .  A
C2381      C2766   1.461       .  A
C2381      C2496   1.539       .  S
C2382      C2763   1.393       .  A
C2382      H2387   1.085       .  S
C2383      C2762   1.393       .  A
C2383      C2384   1.398   1_556  A
C2384      C2385   1.386       .  A
C2384      H2388   1.079       .  S
C2385      C2386   1.450   1_554  A
C2385      C2413   1.535       .  S
C2386      C2761   1.461       .  A
C2386      H2389   1.081       .  S
C2390      H2391   1.112       .  S
C2390      C2396   1.546       .  S
C2390      C2395   1.561       .  S
C2390      C2394   1.545       .  S
C2392      H2393   1.111       .  S
C2392      C2398   1.577       .  S
C2392      C2397   1.554       .  S
C2392      C2399   1.570       .  S
C2394      C2397   1.418       .  D
C2395      C2398   1.414       .  D
C2396      C2400   1.541       .  S
C2396      C2399   1.415       .  D
C2398      C2536   1.535       .  S
C2399      C2610   1.539       .  S
C2400      C2401   1.383       .  A
C2400      C2405   1.460       .  A
C2401      C2402   1.392       .  A
C2401      H2406   1.076       .  S
C2402      C2403   1.398       .  A
C2402      C2630   1.459       .  S
C2403      C2404   1.391       .  A
C2403      H2407   1.085       .  S
C2404      C2405   1.451       .  A
C2404      C2416   1.532       .  S
C2405      H2408   1.082       .  S
C2409      H2410   1.111       .  S
C2409      C2415   1.553       .  S
C2409      C2414   1.569       .  S
C2409      C2413   1.576       .  S
C2411      H2412   1.112       .  S
C2411      C2417   1.546       .  S
C2411      C2416   1.562       .  S
C2411      C2418   1.545       .  S
C2413      C2416   1.415       .  D
C2414      C2417   1.414       .  D
C2415      C2595   1.547       .  S
C2415      C2418   1.418       .  D
C2417      C2423   1.542       .  S
C2419      C2420   1.391       .  A
C2419      C2424   1.451       .  A
C2419      C2605   1.532       .  S
C2420      C2421   1.398       .  A
C2420      H2425   1.085       .  S
C2421      C2422   1.393       .  A
C2421      C2643   1.460       .  S
C2422      C2423   1.384       .  A
C2422      H2426   1.077       .  S
C2423      C2424   1.460       .  A
C2424      H2427   1.082       .  S
C2428      C2429   1.450       .  A
C2428      C2433   1.386       .  A
C2428      C2474   1.535       .  S
C2429      H2434   1.081       .  S
C2430      C2431   1.390       .  A
C2430      C2495   1.539       .  S
C2431      H2435   1.085       .  S
C2432      C2433   1.398       .  A
C2432      C2447   1.459       .  S
C2433      H2436   1.078       .  S
O2437     Cu2445   1.963       .  S
O2437      C2447   1.274       .  A
O2438      C2448   1.278       .  A
O2439     Cu2445   1.964       .  S
O2439      C2449   1.265       .  A
O2440      C2450   1.268       .  A
O2442     Cu2446   1.962       .  S
O2444     Cu2446   1.995       .  S
C2448      C2540   1.459   1_545  S
C2449      C2593   1.437       .  S
C2450      C2577   1.437       .  S
C2451      C2452   1.383       .  A
C2451      C2456   1.460       .  A
C2451      C2606   1.541       .  S
C2452      C2453   1.392       .  A
C2452      H2457   1.075       .  S
C2453      C2454   1.398       .  A
C2453      C2658   1.459       .  S
C2454      C2455   1.391       .  A
C2454      H2458   1.085       .  S
C2455      C2456   1.451       .  A
C2455      C2477   1.531       .  S
C2456      H2459   1.082       .  S
C2460      C2465   1.366       .  A
C2460      C2531   1.539       .  S
C2461      C2462   1.470       .  A
C2461      H2466   1.075       .  S
C2462      C2463   1.375       .  A
C2462      C2473   1.548       .  S
C2463      C2464   1.381       .  A
C2463      H2467   1.085       .  S
C2465      H2468   1.071       .  S
C2469      H2470   1.111       .  S
C2469      C2475   1.570       .  S
C2469      C2474   1.577       .  S
C2469      C2473   1.554       .  S
C2471      H2472   1.112       .  S
C2471      C2477   1.561       .  S
C2471      C2476   1.545       .  S
C2471      C2478   1.546       .  S
C2473      C2476   1.418       .  D
C2474      C2477   1.414       .  D
C2475      C2478   1.415       .  D
C2476      C2483   1.545       .  S
C2479      C2480   1.367       .  A
C2479      C2484   1.462       .  A
C2479      C2494   1.537       .  S
C2480      C2481   1.375       .  A
C2480      H2485   1.073       .  S
C2481      C2482   1.379       .  A
C2481      C2646   1.435       .  S
C2482      C2483   1.371       .  A
C2482      H2486   1.086       .  S
C2483      C2484   1.470       .  A
C2484      H2487   1.075       .  S
C2488      H2489   1.110       .  S
C2488      C2494   1.579       .  S
C2488      C2493   1.579       .  S
C2488      C2492   1.579       .  S
C2490      H2491   1.113       .  S
C2490      C2496   1.535       .  S
C2490      C2495   1.534       .  S
C2490      C2497   1.535       .  S
C2492      C2495   1.415       .  D
C2493      C2502   1.538       .  S
C2493      C2496   1.414       .  D
C2494      C2497   1.414       .  D
C2497      C2586   1.539       .  S
C2498      C2499   1.372       .  A
C2498      C2503   1.470       .  A
C2498      C2516   1.546       .  S
C2499      C2500   1.379       .  A
C2499      H2504   1.086       .  S
C2500      C2501   1.375       .  A
C2500      C2632   1.435       .  S
C2501      C2502   1.367       .  A
C2501      H2505   1.074       .  S
C2502      C2503   1.463       .  A
C2503      H2506   1.076       .  S
C2507      H2508   1.111       .  S
C2507      C2513   1.553       .  S
C2507      C2512   1.570       .  S
C2507      C2511   1.576       .  S
C2509      H2510   1.112       .  S
C2509      C2515   1.547       .  S
C2509      C2514   1.561       .  S
C2509      C2516   1.546       .  S
C2511      C2582   1.534       .  S
C2511      C2514   1.414       .  D
C2512      C2573   1.539       .  S
C2512      C2515   1.414       .  D
C2513      C2612   1.548       .  S
C2513      C2516   1.418       .  D
C2514      C2517   1.532       .  S
C2517      C2518   1.451       .  A
C2517      C2522   1.391       .  A
C2518      C2519   1.460       .  A
C2518      H2523   1.082       .  S
C2519      C2520   1.383       .  A
C2519      C2534   1.540       .  S
C2520      C2521   1.392       .  A
C2520      H2524   1.077       .  S
C2521      C2522   1.398       .  A
C2521      C2644   1.459       .  S
C2522      H2525   1.085       .  S
C2526      H2527   1.111       .  S
C2526      C2532   1.576       .  S
C2526      C2531   1.569       .  S
C2526      C2530   1.553       .  S
C2528      H2529   1.112       .  S
C2528      C2534   1.547       .  S
C2528      C2533   1.546       .  S
C2528      C2535   1.562       .  S
C2530      C2575   1.547       .  S
C2530      C2533   1.418       .  D
C2531      C2534   1.414       .  D
C2532      C2535   1.414       .  D
C2533      C2568   1.547       .  S
C2536      C2541   1.385       .  A
C2537      C2538   1.461       .  A
C2537      H2542   1.081       .  S
C2538      C2539   1.390       .  A
C2538      C2552   1.538       .  S
C2539      C2540   1.393       .  A
C2539      H2543   1.085       .  S
C2541      H2544   1.078       .  S
C2545      H2546   1.110       .  S
C2545      C2551   1.578       .  S
C2545      C2550   1.578       .  S
C2545      C2549   1.578       .  S
C2547      H2548   1.113       .  S
C2547      C2553   1.534       .  S
C2547      C2552   1.534       .  S
C2547      C2554   1.535       .  S
C2549      C2564   1.536       .  S
C2549      C2552   1.415       .  D
C2550      C2553   1.414       .  D
C2551      C2555   1.537       .  S
C2551      C2554   1.414       .  D
C2555      C2556   1.463       .  A
C2555      C2560   1.366       .  A
C2556      C2557   1.471       .  A
C2556      H2561   1.074       .  S
C2557      C2558   1.371       .  A
C2557      C2604   1.546       .  S
C2558      C2559   1.379       .  A
C2558      H2562   1.086       .  S
C2559      C2560   1.375       .  A
C2559      C2631   1.434   1_554  S
C2560      H2563   1.074       .  S
C2564      C2565   1.365       .  A
C2564      C2569   1.463       .  A
C2565      C2566   1.374       .  A
C2565      H2570   1.074       .  S
C2566      C2567   1.379       .  A
C2566      C2659   1.433       .  S
C2567      C2568   1.371       .  A
C2567      H2571   1.086       .  S
C2568      C2569   1.471       .  A
C2569      H2572   1.075       .  S
C2573      C2578   1.366       .  A
C2574      C2575   1.470       .  A
C2574      H2579   1.076       .  S
C2575      C2576   1.374       .  A
C2576      C2577   1.381       .  A
C2576      H2580   1.085       .  S
C2578      H2581   1.070       .  S
C2582      C2583   1.386       .  A
C2583      H2588   1.079       .  S
C2584      C2585   1.393       .  A
C2585      C2586   1.390       .  A
C2585      H2589   1.085       .  S
C2586      C2587   1.461       .  A
C2587      H2590   1.081       .  S
C2591      C2592   1.366       .  A
C2591      C2596   1.463       .  A
C2591      C2609   1.540       .  S
C2592      C2593   1.376       .  A
C2592      H2597   1.070       .  S
C2594      C2595   1.374       .  A
C2594      H2598   1.085       .  S
C2596      H2599   1.076       .  S
C2600      H2601   1.112       .  S
C2600      C2606   1.547       .  S
C2600      C2605   1.560       .  S
C2600      C2604   1.546       .  S
C2602      H2603   1.111       .  S
C2602      C2608   1.576       .  S
C2602      C2607   1.553       .  S
C2602      C2609   1.570       .  S
C2604      C2607   1.418       .  D
C2605      C2608   1.414       .  D
C2606      C2609   1.415       .  D
C2610      C2991   1.463   1_554  A
C2610      C2615   1.366       .  A
C2611      C2990   1.463       .  A
C2611      C2612   1.470       .  A
C2611      H2616   1.076       .  S
C2612      C2613   1.374       .  A
C2613      C2994   1.381       .  A
C2613      H2617   1.085       .  S
C2614      C2993   1.381       .  A
C2614      C2615   1.375   1_556  A
C2615      H2618   1.070       .  S
O2619     Cu2627   1.993       .  S
O2619      C2629   1.279       .  A
O2620     Cu3007   1.965   1_554  S
O2620      C2630   1.274       .  A
O2621     Cu3007   1.961       .  S
O2621      C2631   1.269       .  A
O2622     Cu2627   1.958       .  S
O2622      C2632   1.265       .  A
O2623     Cu2628   1.963       .  S
O2623      C2632   1.269       .  A
O2624     Cu3008   1.957   1_556  S
O2624      C2631   1.265       .  A
O2625     Cu3008   1.994       .  S
O2625      C2630   1.279       .  A
O2626     Cu2628   1.965       .  S
O2626      C2629   1.274       .  A
Cu2627     O3000   1.965       .  S
Cu2627     O3001   1.961       .  S
Cu2627    Cu2628   2.430       .  S
Cu2628     O3004   1.957       .  S
Cu2628     O3005   1.994       .  S
O2633     Cu2641   1.993       .  S
O2633      C2643   1.279       .  A
O2634      C2644   1.274       .  A
O2635      C2645   1.269       .  A
O2636     Cu2641   1.958       .  S
O2636      C2646   1.264       .  A
O2637     Cu2642   1.963       .  S
O2637      C2646   1.269       .  A
O2638      C2645   1.265       .  A
O2639      C2644   1.279       .  A
O2640     Cu2642   1.964       .  S
O2640      C2643   1.274       .  A
Cu2641    Cu2642   2.431       .  S
O2647      C2657   1.278       .  A
O2648     Cu2655   1.966       .  S
O2648      C2658   1.274       .  A
O2649     Cu2655   1.962       .  S
O2649      C2659   1.269       .  A
O2650      C2660   1.264       .  A
O2651      C2660   1.269       .  A
O2652     Cu2656   1.955       .  S
O2652      C2659   1.265       .  A
O2653     Cu2656   1.993       .  S
O2653      C2658   1.279       .  A
O2654      C2657   1.274       .  A
Cu2655    Cu2656   2.430       .  S
C2661      C2662   1.371       .  A
C2661      C2666   1.470       .  A
C2661      C2798   1.546       .  S
C2662      C2663   1.379       .  A
C2662      H2667   1.086       .  S
C2663      C2664   1.375       .  A
C2663      C3040   1.435   1_655  S
C2664      C2665   1.367       .  A
C2664      H2668   1.074       .  S
C2665      C2666   1.463       .  A
C2665      C2872   1.537       .  S
C2666      H2669   1.075       .  S
C2670      C2671   1.462       .  A
C2670      C2675   1.366       .  A
C2670      C2930   1.536       .  S
C2671      C2672   1.470       .  A
C2671      H2676   1.075       .  S
C2672      C2673   1.371       .  A
C2672      C2774   1.545       .  S
C2673      C2674   1.379       .  A
C2673      H2677   1.086       .  S
C2674      C2675   1.375       .  A
C2674      C3025   1.433   1_565  S
C2675      H2678   1.074       .  S
C2679      C2680   1.391       .  A
C2679      C2684   1.451       .  A
C2679      C2915   1.532       .  S
C2680      C2681   1.398       .  A
C2680      H2685   1.085       .  S
C2681      C2682   1.393       .  A
C2681      C3009   1.460       .  S
C2682      C2683   1.384       .  A
C2682      H2686   1.077       .  S
C2683      C2684   1.460       .  A
C2683      C2858   1.542       .  S
C2684      H2687   1.082       .  S
C2688      C2689   1.463   1_556  A
C2688      C2693   1.366       .  A
C2688      C2855   1.539       .  S
C2689      H2694   1.076   1_554  S
C2690      C2691   1.375       .  A
C2690      C2987   1.549       .  S
C2691      H2695   1.085       .  S
C2692      C2693   1.375   1_554  A
C2692      C2734   1.437       .  S
C2693      H2696   1.070       .  S
C2697      C2698   1.385       .  A
C2697      C2702   1.449       .  A
C2697      C2988   1.534       .  S
C2698      C2699   1.398       .  A
C2698      H2703   1.079       .  S
C2699      C2757   1.459       .  S
C2700      C2701   1.390       .  A
C2700      H2704   1.085       .  S
C2701      C2933   1.539       .  S
C2702      H2705   1.081       .  S
C2706      C2707   1.391       .  A
C2706      C2711   1.451       .  A
C2706      C2775   1.532       .  S
C2707      C2708   1.398       .  A
C2707      H2712   1.085       .  S
C2708      C2709   1.393       .  A
C2708      C3037   1.459       .  S
C2709      C2710   1.384       .  A
C2709      H2713   1.077       .  S
C2710      C2711   1.460       .  A
C2710      C2895   1.542       .  S
C2711      H2714   1.082       .  S
C2715      C2716   1.385       .  A
C2715      C2720   1.449       .  A
C2715      C2912   1.534       .  S
C2716      C2717   1.398       .  A
C2716      H2721   1.079       .  S
C2717      C2736   1.459       .  S
C2718      C2719   1.390       .  A
C2718      H2722   1.085       .  S
C2719      C2934   1.538       .  S
C2720      H2723   1.081       .  S
O2724     Cu2732   1.964       .  S
O2724      C2734   1.266   1_556  A
O2726     Cu2732   1.964       .  S
O2726      C2736   1.274       .  A
O2728      C2737   1.274       .  A
O2729     Cu2733   1.992       .  S
O2730      C2735   1.266       .  A
O2731     Cu2733   1.962       .  S
C2735      C2994   1.437       .  S
C2737      C2763   1.459   1_455  S
C2738      C2739   1.463       .  A
C2738      C2743   1.365       .  A
C2738      C2794   1.538       .  S
C2739      H2744   1.075       .  S
C2740      C2741   1.375       .  A
C2740      C2777   1.549       .  S
C2741      H2745   1.085       .  S
C2742      C2743   1.375       .  A
C2742      C2759   1.437       .  S
C2743      H2746   1.071       .  S
O2748     Cu2755   1.964   1_554  S
O2750     Cu2755   1.963       .  S
O2751     Cu2756   1.964   1_556  S
O2751      C2760   1.269       .  A
O2752      C2759   1.266       .  A
O2753     Cu2756   1.994       .  S
O2753      C2758   1.278   1_554  A
O2754      C2757   1.274       .  A
C2758      C2964   1.459       .  S
C2760      C2844   1.437       .  S
C2761      C2762   1.390       .  A
C2761      C2876   1.539       .  S
C2762      H2767   1.085       .  S
C2763      C2764   1.398       .  A
C2764      C2765   1.386       .  A
C2764      H2768   1.079       .  S
C2765      C2766   1.450       .  A
C2765      C2793   1.535       .  S
C2766      H2769   1.081       .  S
C2770      H2771   1.112       .  S
C2770      C2776   1.546       .  S
C2770      C2775   1.561       .  S
C2770      C2774   1.545       .  S
C2772      H2773   1.111       .  S
C2772      C2778   1.577       .  S
C2772      C2777   1.554       .  S
C2772      C2779   1.570       .  S
C2774      C2777   1.418       .  D
C2775      C2778   1.414       .  D
C2776      C2780   1.541       .  S
C2776      C2779   1.415       .  D
C2778      C2916   1.535       .  S
C2779      C2990   1.539       .  S
C2780      C2781   1.383       .  A
C2780      C2785   1.460       .  A
C2781      C2782   1.392       .  A
C2781      H2786   1.076       .  S
C2782      C2783   1.398       .  A
C2782      C3010   1.459       .  S
C2783      C2784   1.391       .  A
C2783      H2787   1.085       .  S
C2784      C2785   1.451       .  A
C2784      C2796   1.532       .  S
C2785      H2788   1.082       .  S
C2789      H2790   1.111       .  S
C2789      C2795   1.553       .  S
C2789      C2794   1.569       .  S
C2789      C2793   1.576       .  S
C2791      H2792   1.112       .  S
C2791      C2797   1.546       .  S
C2791      C2796   1.562       .  S
C2791      C2798   1.545       .  S
C2793      C2796   1.415       .  D
C2794      C2797   1.414       .  D
C2795      C2975   1.547       .  S
C2795      C2798   1.418       .  D
C2797      C2803   1.542       .  S
C2799      C2800   1.391       .  A
C2799      C2804   1.451       .  A
C2799      C2985   1.532       .  S
C2800      C2801   1.398       .  A
C2800      H2805   1.085       .  S
C2801      C2802   1.393       .  A
C2801      C3023   1.460       .  S
C2802      C2803   1.384       .  A
C2802      H2806   1.077       .  S
C2803      C2804   1.460       .  A
C2804      H2807   1.082       .  S
C2808      C2809   1.450       .  A
C2808      C2813   1.386       .  A
C2808      C2854   1.535       .  S
C2809      H2814   1.081       .  S
C2810      C2811   1.390       .  A
C2810      C2875   1.539       .  S
C2811      H2815   1.085       .  S
C2812      C2813   1.398       .  A
C2812      C2827   1.459       .  S
C2813      H2816   1.078       .  S
O2817     Cu2825   1.963       .  S
O2817      C2827   1.274       .  A
O2818      C2828   1.278       .  A
O2819     Cu2825   1.964       .  S
O2819      C2829   1.265       .  A
O2820      C2830   1.268       .  A
O2822     Cu2826   1.962       .  S
O2824     Cu2826   1.995       .  S
C2828      C2920   1.459   1_545  S
C2829      C2973   1.437       .  S
C2830      C2957   1.437       .  S
C2831      C2832   1.383       .  A
C2831      C2836   1.460       .  A
C2831      C2986   1.541       .  S
C2832      C2833   1.392       .  A
C2832      H2837   1.075       .  S
C2833      C2834   1.398       .  A
C2833      C3038   1.459       .  S
C2834      C2835   1.391       .  A
C2834      H2838   1.085       .  S
C2835      C2836   1.451       .  A
C2835      C2857   1.531       .  S
C2836      H2839   1.082       .  S
C2840      C2845   1.366       .  A
C2840      C2911   1.539       .  S
C2841      C2842   1.470       .  A
C2841      H2846   1.075       .  S
C2842      C2843   1.375       .  A
C2842      C2853   1.548       .  S
C2843      C2844   1.381       .  A
C2843      H2847   1.085       .  S
C2845      H2848   1.071       .  S
C2849      H2850   1.111       .  S
C2849      C2855   1.570       .  S
C2849      C2854   1.577       .  S
C2849      C2853   1.554       .  S
C2851      H2852   1.112       .  S
C2851      C2857   1.561       .  S
C2851      C2856   1.545       .  S
C2851      C2858   1.546       .  S
C2853      C2856   1.418       .  D
C2854      C2857   1.414       .  D
C2855      C2858   1.415       .  D
C2856      C2863   1.545       .  S
C2859      C2860   1.367       .  A
C2859      C2864   1.462       .  A
C2859      C2874   1.537       .  S
C2860      C2861   1.375       .  A
C2860      H2865   1.073       .  S
C2861      C2862   1.379       .  A
C2861      C3026   1.435       .  S
C2862      C2863   1.371       .  A
C2862      H2866   1.086       .  S
C2863      C2864   1.470       .  A
C2864      H2867   1.075       .  S
C2868      H2869   1.110       .  S
C2868      C2874   1.579       .  S
C2868      C2873   1.579       .  S
C2868      C2872   1.579       .  S
C2870      H2871   1.113       .  S
C2870      C2876   1.535       .  S
C2870      C2875   1.534       .  S
C2870      C2877   1.535       .  S
C2872      C2875   1.415       .  D
C2873      C2882   1.538       .  S
C2873      C2876   1.414       .  D
C2874      C2877   1.414       .  D
C2877      C2966   1.539       .  S
C2878      C2879   1.372       .  A
C2878      C2883   1.470       .  A
C2878      C2896   1.546       .  S
C2879      C2880   1.379       .  A
C2879      H2884   1.086       .  S
C2880      C2881   1.375       .  A
C2880      C3012   1.435   1_556  S
C2881      C2882   1.367       .  A
C2881      H2885   1.074       .  S
C2882      C2883   1.463       .  A
C2883      H2886   1.076       .  S
C2887      H2888   1.111       .  S
C2887      C2893   1.553       .  S
C2887      C2892   1.570       .  S
C2887      C2891   1.576       .  S
C2889      H2890   1.112       .  S
C2889      C2895   1.547       .  S
C2889      C2894   1.561       .  S
C2889      C2896   1.546       .  S
C2891      C2962   1.534       .  S
C2891      C2894   1.414       .  D
C2892      C2953   1.539       .  S
C2892      C2895   1.414       .  D
C2893      C2992   1.548       .  S
C2893      C2896   1.418       .  D
C2894      C2897   1.532       .  S
C2897      C2898   1.451       .  A
C2897      C2902   1.391       .  A
C2898      C2899   1.460       .  A
C2898      H2903   1.082       .  S
C2899      C2900   1.383       .  A
C2899      C2914   1.540       .  S
C2900      C2901   1.392       .  A
C2900      H2904   1.077       .  S
C2901      C2902   1.398       .  A
C2901      C3024   1.459       .  S
C2902      H2905   1.085       .  S
C2906      H2907   1.111       .  S
C2906      C2912   1.576       .  S
C2906      C2911   1.569       .  S
C2906      C2910   1.553       .  S
C2908      H2909   1.112       .  S
C2908      C2914   1.547       .  S
C2908      C2913   1.546       .  S
C2908      C2915   1.562       .  S
C2910      C2955   1.547       .  S
C2910      C2913   1.418       .  D
C2911      C2914   1.414       .  D
C2912      C2915   1.414       .  D
C2913      C2948   1.547       .  S
C2916      C2921   1.385       .  A
C2917      C2918   1.461       .  A
C2917      H2922   1.081       .  S
C2918      C2919   1.390       .  A
C2918      C2932   1.538       .  S
C2919      C2920   1.393       .  A
C2919      H2923   1.085       .  S
C2921      H2924   1.078       .  S
C2925      H2926   1.110       .  S
C2925      C2931   1.578       .  S
C2925      C2930   1.578       .  S
C2925      C2929   1.578       .  S
C2927      H2928   1.113       .  S
C2927      C2933   1.534       .  S
C2927      C2932   1.534       .  S
C2927      C2934   1.535       .  S
C2929      C2944   1.536       .  S
C2929      C2932   1.415       .  D
C2930      C2933   1.414       .  D
C2931      C2935   1.537       .  S
C2931      C2934   1.414       .  D
C2935      C2936   1.463       .  A
C2935      C2940   1.366       .  A
C2936      C2937   1.471       .  A
C2936      H2941   1.074       .  S
C2937      C2938   1.371       .  A
C2937      C2984   1.546       .  S
C2938      C2939   1.379       .  A
C2938      H2942   1.086       .  S
C2939      C2940   1.375       .  A
C2939      C3011   1.434       .  S
C2940      H2943   1.074       .  S
C2944      C2945   1.365       .  A
C2944      C2949   1.463       .  A
C2945      C2946   1.374       .  A
C2945      H2950   1.074       .  S
C2946      C2947   1.379       .  A
C2946      C3039   1.433       .  S
C2947      C2948   1.371       .  A
C2947      H2951   1.086       .  S
C2948      C2949   1.471       .  A
C2949      H2952   1.075       .  S
C2953      C2958   1.366       .  A
C2954      C2955   1.470       .  A
C2954      H2959   1.076       .  S
C2955      C2956   1.374       .  A
C2956      C2957   1.381       .  A
C2956      H2960   1.085       .  S
C2958      H2961   1.070       .  S
C2962      C2963   1.386       .  A
C2963      H2968   1.079       .  S
C2964      C2965   1.393       .  A
C2965      C2966   1.390       .  A
C2965      H2969   1.085       .  S
C2966      C2967   1.461       .  A
C2967      H2970   1.081       .  S
C2971      C2972   1.366       .  A
C2971      C2976   1.463       .  A
C2971      C2989   1.540       .  S
C2972      C2973   1.376       .  A
C2972      H2977   1.070       .  S
C2974      C2975   1.374       .  A
C2974      H2978   1.085       .  S
C2976      H2979   1.076       .  S
C2980      H2981   1.112       .  S
C2980      C2986   1.547       .  S
C2980      C2985   1.560       .  S
C2980      C2984   1.546       .  S
C2982      H2983   1.111       .  S
C2982      C2988   1.576       .  S
C2982      C2987   1.553       .  S
C2982      C2989   1.570       .  S
C2984      C2987   1.418       .  D
C2985      C2988   1.414       .  D
C2986      C2989   1.415       .  D
C2990      C2995   1.366       .  A
C2991      C2992   1.470       .  A
C2991      H2996   1.076       .  S
C2992      C2993   1.374       .  A
C2993      H2997   1.085       .  S
C2994      C2995   1.375       .  A
C2995      H2998   1.070       .  S
O2999     Cu3007   1.993       .  S
O2999      C3009   1.279       .  A
O3000      C3010   1.274       .  A
O3001      C3011   1.269       .  A
O3002     Cu3007   1.958   1_554  S
O3002      C3012   1.265       .  A
O3003     Cu3008   1.963       .  S
O3003      C3012   1.269       .  A
O3004      C3011   1.265       .  A
O3005      C3010   1.279       .  A
O3006     Cu3008   1.965   1_556  S
O3006      C3009   1.274       .  A
Cu3007    Cu3008   2.430   1_556  S
O3013     Cu3021   1.993       .  S
O3013      C3023   1.279       .  A
O3014      C3024   1.274       .  A
O3015      C3025   1.269       .  A
O3016     Cu3021   1.958       .  S
O3016      C3026   1.264       .  A
O3017     Cu3022   1.963       .  S
O3017      C3026   1.269       .  A
O3018      C3025   1.265       .  A
O3019      C3024   1.279       .  A
O3020     Cu3022   1.964       .  S
O3020      C3023   1.274       .  A
Cu3021    Cu3022   2.431       .  S
O3027      C3037   1.278       .  A
O3028     Cu3035   1.966       .  S
O3028      C3038   1.274       .  A
O3029     Cu3035   1.962       .  S
O3029      C3039   1.269       .  A
O3030      C3040   1.264       .  A
O3031      C3040   1.269       .  A
O3032     Cu3036   1.955       .  S
O3032      C3039   1.265       .  A
O3033     Cu3036   1.993       .  S
O3033      C3038   1.279       .  A
O3034      C3037   1.274       .  A
Cu3035    Cu3036   2.430       .  S
