geometry optimzed in LAMMPS
_audit_creation_date              2020-12-01 
_audit_creation_method            'lammps2cif' 
_symmetry_space_group_name_H-M    'P1' 
_symmetry_Int_Tables_number       1 
_symmetry_cell_setting            triclinic 
loop_ 
_symmetry_equiv_pos_as_xyz 
  x,y,z 
_cell_length_a                    28.66058185 
_cell_length_b                    28.196860889716767 
_cell_length_c                    46.78883168248716 
_cell_angle_alpha                 90.06985230452358 
_cell_angle_beta                  89.18821322506365 
_cell_angle_gamma                 91.90578194291402 
loop_ 
_atom_site_label 
_atom_site_type_symbol 
_atom_site_fract_x 
_atom_site_fract_y 
_atom_site_fract_z 
_atom_site_charge 
C1          C  0.49930433  0.66194157  0.84491535    -0.02000
C2          C  0.66156873  0.49832030  0.69676789    -0.02000
C3          C  0.50406521  0.33550980  0.83582943    -0.02000
C4          C  0.32125112  0.53922536  0.71615622    -0.02000
C5          C  0.67398167  0.50634511  0.35175044    -0.02000
C6          C  0.50141518  0.65932977  0.19875383    -0.02000
C7          C  0.36640209  0.49954948  0.35781910    -0.02000
C8          C  0.47471695  0.34283122  0.20688829    -0.02000
O9          O  0.46185189  0.95413237  0.05164421    -0.74000
O10         O  0.45735132  0.05177459  0.99451313    -0.74000
O11         O  0.46143382  0.95575826  0.99375247    -0.74100
O12         O  0.45790034  0.05087749  0.05272612    -0.74100
O13         O  0.53548454  0.05656419  0.05199429    -0.74000
O14         O  0.53896142  0.96156587  0.99287562    -0.74000
O15         O  0.53506871  0.05795228  0.99400365    -0.74000
O16         O  0.53958169  0.96020255  0.05109517    -0.74100
Ni17       Ni  0.45689972  0.00296553  0.02324044     1.25400
Ni18       Ni  0.54001300  0.00926833  0.02246678     1.25400
C19         C  0.50140307  0.94052579  0.06045984     0.88200
C20         C  0.49553599  0.07111837  0.98492558     0.88100
C21         C  0.50069000  0.94297034  0.98340716     0.88200
C22         C  0.49615137  0.06959966  0.06214618     0.88300
O23         O  0.06027203  0.55288632  0.49616297    -0.74000
O24         O  0.96023206  0.54944180  0.55160967    -0.74000
O25         O  0.05454215  0.55482164  0.55421184    -0.74100
O26         O  0.96565118  0.54719001  0.49342539    -0.74100
O27         O  0.96582390  0.46816805  0.49545926    -0.74000
O28         O  0.05721431  0.47596868  0.55461600    -0.74000
O29         O  0.96270077  0.47067703  0.55339031    -0.74000
O30         O  0.06086431  0.47397248  0.49660727    -0.74100
Ni31       Ni  0.01010075  0.55388826  0.52377621     1.25400
Ni32       Ni  0.01175111  0.46940970  0.52501192     1.25400
C33         C  0.07701807  0.51395857  0.48709763     0.88200
C34         C  0.94538860  0.50963239  0.56202237     0.88100
C35         C  0.07058879  0.51654368  0.56442588     0.88200
C36         C  0.95080536  0.50638331  0.48464205     0.88300
C37         C  0.48062115  0.29936529  0.18612353    -0.11500
C38         C  0.51683810  0.29745464  0.16479857     0.04000
C39         C  0.51850206  0.25922127  0.14552274    -0.12100
C40         C  0.48661191  0.22060441  0.14736502     0.18800
C41         C  0.45410590  0.21937299  0.17010325    -0.09100
C42         C  0.45074094  0.25823305  0.18863341    -0.02100
H43         H  0.54502201  0.25970404  0.12877921     0.05300
C44         C  0.48854509  0.18162761  0.12576143     0.20800
H45         H  0.42473974  0.25481093  0.20546374     0.10500
C46         C  0.52854809  0.15439854  0.12356361    -0.15400
C47         C  0.53186166  0.11771141  0.10335145     0.03500
C48         C  0.49447401  0.10750020  0.08453983    -0.10800
C49         C  0.45448007  0.13502617  0.08683156    -0.00800
C50         C  0.45148348  0.17191882  0.10687345    -0.05900
H51         H  0.55732431  0.16149394  0.13788908     0.06500
H52         H  0.42563489  0.12862360  0.07246587     0.09900
Br53       Br  0.41546021  0.16385310  0.17799625    -0.05600
Br54       Br  0.56538153  0.34551221  0.15947080    -0.02600
Br55       Br  0.58771669  0.08193417  0.10377066     0.00300
Br56       Br  0.39702299  0.20976410  0.10644664    -0.04100
C57         C  0.35286282  0.45898025  0.33542017    -0.11500
C58         C  0.33504839  0.41243502  0.34248784     0.04000
C59         C  0.33436967  0.37622748  0.32138288    -0.12100
C60         C  0.34417508  0.38653688  0.29240057     0.18800
C61         C  0.34490210  0.43483446  0.28474115    -0.09100
C62         C  0.35157185  0.46944697  0.30567139    -0.02100
H63         H  0.32735441  0.33981667  0.32782983     0.05300
C64         C  0.36408944  0.35040718  0.27213725     0.20800
H65         H  0.35384613  0.50536152  0.29779737     0.10500
C66         C  0.35188181  0.34945139  0.24316182    -0.15400
C67         C  0.38503827  0.33915050  0.22164475     0.03500
C68         C  0.43286481  0.33286283  0.22891897    -0.10800
C69         C  0.44021545  0.32222431  0.25802626    -0.00800
C70         C  0.40567573  0.32808403  0.27898635    -0.05900
H71         H  0.31749876  0.36012409  0.23705028     0.06500
H72         H  0.47273025  0.31057065  0.26571512     0.09900
Br73       Br  0.33449171  0.45788637  0.24668284    -0.05600
Br74       Br  0.31428639  0.39390895  0.38024077    -0.02600
Br75       Br  0.36268106  0.33803119  0.18308334     0.00300
Br76       Br  0.41715074  0.30177600  0.31576110    -0.04100
C77         C  0.32113064  0.50811661  0.37647086    -0.11500
C78         C  0.27693948  0.51941023  0.36454967     0.04000
C79         C  0.23733089  0.52424000  0.38218034    -0.12100
C80         C  0.23921016  0.51762206  0.41168764     0.18800
C81         C  0.28158029  0.50567812  0.42382142    -0.09100
C82         C  0.32138720  0.50099519  0.40658800    -0.02100
H83         H  0.20431908  0.53258342  0.37268708     0.05300
C84         C  0.19587393  0.51916639  0.42929417     0.20800
H85         H  0.35182406  0.48901566  0.41735997     0.10500
C86         C  0.16373043  0.48068287  0.42825219    -0.15400
C87         C  0.12442682  0.47845139  0.44641101     0.03500
C88         C  0.11646722  0.51563012  0.46605802    -0.10800
C89         C  0.14787790  0.55511560  0.46612796    -0.00800
C90         C  0.18737180  0.55697103  0.44811374    -0.05900
H91         H  0.16984184  0.45165698  0.41361617     0.06500
H92         H  0.14249447  0.58416583  0.48085319     0.09900
Br93       Br  0.28598983  0.49185692  0.46385589    -0.05600
Br94       Br  0.26516828  0.52896058  0.32465070    -0.02600
Br95       Br  0.08273079  0.42417211  0.44254093     0.00300
Br96       Br  0.22923002  0.61135723  0.45025813    -0.04100
C97         C  0.46092582  0.38928910  0.19054302    -0.11500
C98         C  0.44756816  0.43073831  0.20596455     0.04000
C99         C  0.43765493  0.47244820  0.19152976    -0.12100
C100        C  0.44996434  0.47845888  0.16279209     0.18800
C101        C  0.46001501  0.43790506  0.14673617    -0.09100
C102        C  0.46192542  0.39338092  0.16022835    -0.02100
H103        H  0.42761790  0.50302919  0.20379602     0.05300
C104        C  0.46969298  0.52634652  0.15519234     0.20800
H105        H  0.46739410  0.36317253  0.14665889     0.10500
C106        C  0.51604641  0.53500312  0.16260630    -0.15400
C107        C  0.53123265  0.57936438  0.17295175     0.03500
C108        C  0.49807425  0.61669382  0.17653807    -0.10800
C109        C  0.45839390  0.61130386  0.15921427    -0.00800
C110        C  0.44209484  0.56570149  0.15052127    -0.05900
H111        H  0.53894744  0.50526676  0.16412954     0.06500
H112        H  0.43800005  0.64181624  0.15471591     0.09900
Br113      Br  0.47394440  0.44270863  0.10669097    -0.05600
Br114      Br  0.45118662  0.43764352  0.24689161    -0.02600
Br115      Br  0.59627371  0.57898319  0.18330415     0.00300
Br116      Br  0.38202449  0.55741535  0.13349127    -0.04100
C117        C  0.45845869  0.66421864  0.22063860    -0.11500
C118        C  0.41587849  0.63644721  0.22184125     0.04000
C119        C  0.39562765  0.62499839  0.24849450    -0.12100
C120        C  0.41242206  0.64568652  0.27364777     0.18800
C121        C  0.44513463  0.68356178  0.27141768    -0.09100
C122        C  0.46618199  0.69410132  0.24483306    -0.02100
H123        H  0.36642523  0.59959041  0.24966671     0.05300
C124        C  0.40574058  0.61818419  0.30036096     0.20800
H125        H  0.49388329  0.72111825  0.24419412     0.10500
C126        C  0.43456131  0.58009324  0.30334618    -0.15400
C127        C  0.42430410  0.54380004  0.32253092     0.03500
C128        C  0.38354528  0.54499254  0.34057254    -0.10800
C129        C  0.35943141  0.58824467  0.34085182    -0.00800
C130        C  0.36883870  0.62351341  0.31999987    -0.05900
H131        H  0.46399055  0.57682366  0.28895043     0.06500
H132        H  0.33131321  0.59399511  0.35589533     0.09900
Br133      Br  0.46588846  0.71778071  0.30451711    -0.05600
Br134      Br  0.36966846  0.63575981  0.19274042    -0.02600
Br135      Br  0.46477970  0.49149590  0.31775539     0.00300
Br136      Br  0.32942612  0.67682591  0.31798931    -0.04100
C137        C  0.50298669  0.90136061  0.08158759    -0.11500
C138        C  0.47574089  0.85910724  0.07835399     0.04000
C139        C  0.47735768  0.82309882  0.09890969    -0.12100
C140        C  0.50595012  0.82803684  0.12291314     0.18800
C141        C  0.53399130  0.86975186  0.12587823    -0.09100
C142        C  0.53244680  0.90588069  0.10528332    -0.02100
H143        H  0.45650403  0.79073683  0.09600970     0.05300
C144        C  0.50659622  0.78860476  0.14405187     0.20800
H145        H  0.55378198  0.93796208  0.10803455     0.10500
C146        C  0.54549858  0.76026086  0.14545792    -0.15400
C147        C  0.54595701  0.72001392  0.16315833     0.03500
C148        C  0.50659424  0.70686835  0.18095968    -0.10800
C149        C  0.46772191  0.73699895  0.17914069    -0.00800
C150        C  0.46762793  0.77683995  0.16130651    -0.05900
H151        H  0.57559686  0.76894330  0.13193834     0.06500
H152        H  0.43553299  0.72941832  0.19071625     0.09900
Br153      Br  0.57375507  0.87946408  0.15812948    -0.05600
Br154      Br  0.43840567  0.84710734  0.04520446    -0.02600
Br155      Br  0.60269067  0.68692543  0.16023973     0.00300
Br156      Br  0.41275131  0.81406164  0.16101739    -0.04100
C157        C  0.64290173  0.50940014  0.38010552    -0.11500
C158        C  0.62236082  0.55185155  0.39029579     0.04000
C159        C  0.57604874  0.54922884  0.40019879    -0.12100
C160        C  0.55403452  0.50522566  0.40666173     0.18800
C161        C  0.58384808  0.46627388  0.40904755    -0.09100
C162        C  0.62775498  0.46807898  0.39506961    -0.02100
H163        H  0.55690017  0.58144205  0.39985936     0.05300
C164        C  0.50190332  0.49828799  0.40280082     0.20800
H165        H  0.64621509  0.43562600  0.39282194     0.10500
C166        C  0.48564288  0.45726385  0.38871484    -0.15400
C167        C  0.44031094  0.45197293  0.37810197     0.03500
C168        C  0.41006688  0.49131029  0.37775148    -0.10800
C169        C  0.42504904  0.53060464  0.39493532    -0.00800
C170        C  0.46906780  0.53373758  0.40790456    -0.05900
H171        H  0.50948554  0.42929239  0.38408775     0.06500
H172        H  0.40257934  0.56052554  0.39739302     0.09900
Br173      Br  0.56518298  0.40946415  0.42934123    -0.05600
Br174      Br  0.65035398  0.61469594  0.38746805    -0.02600
Br175      Br  0.42940812  0.38983966  0.36359085     0.00300
Br176      Br  0.48066463  0.58664021  0.43300280    -0.04100
C177        C  0.65808223  0.46382869  0.33145639    -0.11500
C178        C  0.68489306  0.44880955  0.30707972     0.04000
C179        C  0.66453929  0.42019642  0.28556375    -0.12100
C180        C  0.61818866  0.40341119  0.28762076     0.18800
C181        C  0.59288386  0.41350655  0.31256060    -0.09100
C182        C  0.61148095  0.44476995  0.33308227    -0.02100
H183        H  0.68480668  0.41189371  0.26659208     0.05300
C184        C  0.59355513  0.38354189  0.26207124     0.20800
H185        H  0.58717825  0.45594451  0.34925291     0.10500
C186        C  0.57900833  0.33557506  0.26044579    -0.15400
C187        C  0.54608124  0.31978257  0.24000946     0.03500
C188        C  0.52286222  0.35332946  0.22275858    -0.10800
C189        C  0.54600240  0.39873375  0.22081804    -0.00800
C190        C  0.57954153  0.41405468  0.24045072    -0.05900
H191        H  0.59208873  0.31061555  0.27571775     0.06500
H192        H  0.53699853  0.42436890  0.20489991     0.09900
Br193      Br  0.53113028  0.38718931  0.31859935    -0.05600
Br194      Br  0.75017993  0.46224541  0.30103653    -0.02600
Br195      Br  0.53347512  0.25240134  0.23843060     0.00300
Br196      Br  0.60221178  0.47868396  0.23817629    -0.04100
C197        C  0.66369905  0.55038535  0.33207979    -0.11500
C198        C  0.69468881  0.57747126  0.31322084     0.04000
C199        C  0.67593128  0.60814820  0.29255786    -0.12100
C200        C  0.62833291  0.61836566  0.29283300     0.18800
C201        C  0.60082529  0.59965259  0.31522305    -0.09100
C202        C  0.61585690  0.56090623  0.33000732    -0.02100
H203        H  0.69829939  0.62284456  0.27570879     0.05300
C204        C  0.60344427  0.63057484  0.26614924     0.20800
H205        H  0.58905498  0.54020010  0.34120446     0.10500
C206        C  0.57052734  0.59657931  0.25722227    -0.15400
C207        C  0.53818298  0.60600283  0.23666836     0.03500
C208        C  0.54121847  0.64884238  0.22030491    -0.10800
C209        C  0.57611399  0.68297608  0.22861650    -0.00800
C210        C  0.60654237  0.67431644  0.25157497    -0.05900
H211        H  0.56738149  0.56282876  0.26827396     0.06500
H212        H  0.57783426  0.71763992  0.21876685     0.09900
Br213      Br  0.53915658  0.62041823  0.32324929    -0.05600
Br214      Br  0.76162029  0.57655988  0.31187903    -0.02600
Br215      Br  0.49085185  0.55673424  0.23389540     0.00300
Br216      Br  0.64864498  0.72407603  0.26384954    -0.04100
C217        C  0.72420553  0.50282620  0.36395430    -0.11500
C218        C  0.74461216  0.45920686  0.37236912     0.04000
C219        C  0.78474155  0.45970692  0.38933180    -0.12100
C220        C  0.80434532  0.50196114  0.40024330     0.18800
C221        C  0.78473137  0.54490255  0.39243394    -0.09100
C222        C  0.74565967  0.54485625  0.37483432    -0.02100
H223        H  0.79953155  0.42634712  0.39536116     0.05300
C224        C  0.84289929  0.50043685  0.42131135     0.20800
H225        H  0.73140622  0.57869477  0.37013185     0.10500
C226        C  0.88640282  0.52283752  0.41499181    -0.15400
C227        C  0.92209037  0.52478516  0.43525333     0.03500
C228        C  0.91497897  0.50328606  0.46219673    -0.10800
C229        C  0.87227254  0.47934349  0.46815095    -0.00800
C230        C  0.83622962  0.47822674  0.44818330    -0.05900
H231        H  0.89236814  0.53946838  0.39434541     0.06500
H232        H  0.86632716  0.46284678  0.48884952     0.09900
Br233      Br  0.80710029  0.60475473  0.40739111    -0.05600
Br234      Br  0.72032113  0.39612723  0.36429564    -0.02600
Br235      Br  0.98050778  0.55580881  0.42494708     0.00300
Br236      Br  0.77752399  0.44875727  0.45954991    -0.02700
C237        C  0.10389226  0.51929982  0.58843507    -0.11500
C238        C  0.13994672  0.48675203  0.59144870     0.04000
C239        C  0.16962258  0.49005267  0.61492788    -0.12100
C240        C  0.16447774  0.52541668  0.63574736     0.18800
C241        C  0.12879805  0.55823578  0.63265579    -0.09100
C242        C  0.09898577  0.55495038  0.60919840    -0.02100
H243        H  0.19792343  0.46568531  0.61650156     0.05300
C244        C  0.20006347  0.53029274  0.65846434     0.20800
H245        H  0.07143761  0.58012877  0.60737015     0.10500
C246        C  0.22909441  0.57092290  0.65882665    -0.15400
C247        C  0.26733534  0.57505995  0.67700352     0.03500
C248        C  0.27883304  0.53668314  0.69546765    -0.10800
C249        C  0.24700434  0.49697031  0.69592154    -0.00800
C250        C  0.20857845  0.49354662  0.67773191    -0.05900
H251        H  0.22299021  0.59923202  0.64381795     0.06500
H252        H  0.25107889  0.46792128  0.71056523     0.09900
Br253      Br  0.11870821  0.60763684  0.66009708    -0.05600
Br254      Br  0.15328019  0.43954912  0.56314471    -0.02600
Br255      Br  0.30349680  0.63291548  0.67133155     0.00300
Br256      Br  0.16767872  0.43843764  0.68063179    -0.04100
C257        C  0.32443098  0.49256830  0.73545293    -0.11500
C258        C  0.34125574  0.44868243  0.72427384     0.04000
C259        C  0.35927890  0.41430657  0.74250108    -0.12100
C260        C  0.35326516  0.41680385  0.77220808     0.18800
C261        C  0.32617116  0.45397068  0.78283793    -0.09100
C262        C  0.31708757  0.49277141  0.76551050    -0.02100
H263        H  0.37916713  0.38623752  0.73310195     0.05300
C264        C  0.38226641  0.38786575  0.79191094     0.20800
H265        H  0.30492520  0.52246201  0.77709029     0.10500
C266        C  0.40064616  0.41089624  0.81587874    -0.15400
C267        C  0.42936060  0.38823417  0.83454985     0.03500
C268        C  0.45335665  0.34719215  0.82534851    -0.10800
C269        C  0.42936182  0.31973663  0.80459896    -0.00800
C270        C  0.39432893  0.33978137  0.78766909    -0.05900
H271        H  0.39263310  0.44720164  0.82075440     0.06500
H272        H  0.44040558  0.28420378  0.79986123     0.09900
Br273      Br  0.29979800  0.45439810  0.82100270    -0.05600
Br274      Br  0.34236806  0.43128773  0.68471181    -0.02600
Br275      Br  0.42627969  0.41345863  0.87273259     0.00300
Br276      Br  0.36466530  0.29968807  0.75974342    -0.04100
C277        C  0.49392054  0.10883382  0.96289178    -0.11500
C278        C  0.52268718  0.15038652  0.96428910     0.04000
C279        C  0.52076595  0.18482852  0.94280946    -0.12100
C280        C  0.49036408  0.17897487  0.91973824     0.18800
C281        C  0.46124540  0.13779137  0.91842362    -0.09100
C282        C  0.46299362  0.10331581  0.93996583    -0.02100
H283        H  0.54290565  0.21662869  0.94420800     0.05300
C284        C  0.48963482  0.21657132  0.89752719     0.20800
H285        H  0.44045657  0.07179401  0.93862496     0.10500
C286        C  0.50836362  0.20823135  0.87033899    -0.15400
C287        C  0.51091593  0.24393616  0.84939986     0.03500
C288        C  0.49780096  0.29143795  0.85624336    -0.10800
C289        C  0.47402969  0.29685736  0.88269785    -0.00800
C290        C  0.47075850  0.26082395  0.90323809    -0.05900
H291        H  0.52036818  0.17314597  0.86519262     0.06500
H292        H  0.45904828  0.33000601  0.88823986     0.09900
Br293      Br  0.41772417  0.12783933  0.88806139    -0.05600
Br294      Br  0.56278341  0.16369540  0.99603180    -0.02600
Br295      Br  0.52638548  0.22027925  0.81195222     0.00300
Br296      Br  0.43937738  0.27345205  0.93879291    -0.04100
C297        C  0.37095188  0.54179810  0.70121560    -0.11500
C298        C  0.38338531  0.53584129  0.67149139     0.04000
C299        C  0.43062812  0.53089793  0.66337853    -0.12100
C300        C  0.46611002  0.53229560  0.68358701     0.18800
C301        C  0.45478857  0.54182608  0.71207257    -0.09100
C302        C  0.40858577  0.54567127  0.72058273    -0.02100
H303        H  0.43956744  0.52331988  0.64130139     0.05300
C304        C  0.51407780  0.51765896  0.67646528     0.20800
H305        H  0.40171167  0.55006891  0.74324839     0.10500
C306        C  0.54759929  0.55142568  0.66748116    -0.15400
C307        C  0.59542365  0.54354878  0.67024423     0.03500
C308        C  0.61145409  0.50077245  0.68313160    -0.10800
C309        C  0.57612985  0.46541544  0.68922643    -0.00800
C310        C  0.52862733  0.47336994  0.68557863    -0.05900
H311        H  0.53642946  0.58562306  0.66014480     0.06500
H312        H  0.58339667  0.43281132  0.69971465     0.09900
Br313      Br  0.50158227  0.54604923  0.74077032    -0.05600
Br314      Br  0.34153880  0.52655235  0.63997428    -0.02600
Br315      Br  0.63475593  0.59536440  0.65680411     0.00300
Br316      Br  0.48335929  0.42544027  0.69757178    -0.04100
C317        C  0.66923642  0.45005305  0.71368551    -0.11500
C318        C  0.66209108  0.40346318  0.70246164     0.04000
C319        C  0.65074445  0.36549758  0.72125758    -0.12100
C320        C  0.64619264  0.37322432  0.75092457     0.18800
C321        C  0.66744860  0.41556931  0.76165888    -0.09100
C322        C  0.68296688  0.45106218  0.74265792    -0.02100
H323        H  0.64156199  0.33102222  0.71242002     0.05300
C324        C  0.61352573  0.34263302  0.76927255     0.20800
H325        H  0.69920982  0.48270951  0.75172822     0.10500
C326        C  0.62511182  0.33153803  0.79746726    -0.15400
C327        C  0.59036695  0.32341480  0.81861534     0.03500
C328        C  0.54202403  0.32630297  0.81182494    -0.10800
C329        C  0.53204158  0.32528910  0.78223691    -0.00800
C330        C  0.56687794  0.33261009  0.76126424    -0.05900
H331        H  0.66139189  0.33294106  0.80364936     0.06500
H332        H  0.49724420  0.32337819  0.77437120     0.09900
Br333      Br  0.67011309  0.43266135  0.80144639    -0.05600
Br334      Br  0.66112513  0.38936116  0.66251331    -0.02600
Br335      Br  0.61245062  0.31197692  0.85649629     0.00300
Br336      Br  0.54611077  0.33120112  0.72248579    -0.04100
C337        C  0.70368372  0.50231535  0.67528372    -0.11500
C338        C  0.70191282  0.50091366  0.64461143     0.04000
C339        C  0.74336912  0.50366622  0.62829703    -0.12100
C340        C  0.78726943  0.50402634  0.64093952     0.18800
C341        C  0.78976167  0.50241390  0.67080692    -0.09100
C342        C  0.74876624  0.50165027  0.68743045    -0.02100
H343        H  0.74144573  0.50342892  0.60517332     0.05300
C344        C  0.82971052  0.50402370  0.62230454     0.20800
H345        H  0.75229392  0.50089556  0.71041642     0.10500
C346        C  0.86049216  0.54378194  0.62178076    -0.15400
C347        C  0.89903128  0.54606396  0.60293029     0.03500
C348        C  0.90695266  0.50818167  0.58374783    -0.10800
C349        C  0.87687381  0.46780224  0.58509750    -0.00800
C350        C  0.83869257  0.46549289  0.60408046    -0.05900
H351        H  0.85427284  0.57336623  0.63597641     0.06500
H352        H  0.88251776  0.43805453  0.57093429     0.09900
Br353      Br  0.84829727  0.49889170  0.68994609    -0.05600
Br354      Br  0.64770692  0.48888201  0.62137358    -0.02600
Br355      Br  0.94051815  0.60078257  0.60562235     0.00300
Br356      Br  0.80016929  0.40849707  0.60467331    -0.04100
C357        C  0.50793516  0.61656232  0.86456290    -0.11500
C358        C  0.47160543  0.58734758  0.87769866     0.04000
C359        C  0.48092706  0.54088872  0.88662907    -0.12100
C360        C  0.52636662  0.52385839  0.88546495     0.18800
C361        C  0.56298629  0.55701763  0.88090890    -0.09100
C362        C  0.55373199  0.60289097  0.87158740    -0.02100
H363        H  0.45204043  0.51683115  0.89223267     0.05300
C364        C  0.53243903  0.47449123  0.87528496     0.20800
H365        H  0.58352814  0.62607344  0.86965945     0.10500
C366        C  0.53037061  0.46901604  0.84599469    -0.15400
C367        C  0.52695209  0.42522951  0.83289417     0.03500
C368        C  0.52383418  0.38284907  0.84977361    -0.10800
C369        C  0.53443498  0.38836856  0.87934955    -0.00800
C370        C  0.53710672  0.43389443  0.89224617    -0.05900
H371        H  0.52707893  0.50001747  0.83320404     0.06500
H372        H  0.53779229  0.35798773  0.89304453     0.09900
Br373      Br  0.62667059  0.53877100  0.88327150    -0.05600
Br374      Br  0.40946503  0.60779415  0.88637868    -0.02600
Br375      Br  0.51698892  0.43063889  0.79233186     0.00300
Br376      Br  0.54313911  0.43914032  0.93278732    -0.04100
C377        C  0.44851757  0.65768608  0.83222554    -0.11500
C378        C  0.43099700  0.61544831  0.81841774     0.04000
C379        C  0.38762349  0.61399444  0.80508641    -0.12100
C380        C  0.36131543  0.65453257  0.80234643     0.18800
C381        C  0.37599695  0.69573532  0.81704299    -0.09100
C382        C  0.41786417  0.69655173  0.83260430    -0.02100
H383        H  0.37698688  0.58211958  0.79356891     0.05300
C384        C  0.32775759  0.65436215  0.77825406     0.20800
H385        H  0.42709519  0.72929309  0.84333112     0.10500
C386        C  0.28887657  0.62254015  0.77909335    -0.15400
C387        C  0.27934050  0.59226313  0.75561818     0.03500
C388        C  0.31539842  0.58583880  0.73473010    -0.10800
C389        C  0.34663308  0.62577451  0.73132603    -0.00800
C390        C  0.34806987  0.66240464  0.75130912    -0.05900
H391        H  0.26850025  0.61840292  0.79864408     0.06500
H392        H  0.37009039  0.62938133  0.71313182     0.09900
Br393      Br  0.34127561  0.75249659  0.81503805    -0.05600
Br394      Br  0.46553918  0.55969303  0.81197900    -0.02600
Br395      Br  0.22170175  0.55535454  0.75665542     0.00300
Br396      Br  0.37820613  0.72184757  0.74146929    -0.04100
C397        C  0.53722742  0.66426107  0.81946088    -0.11500
C398        C  0.52827476  0.66012410  0.78933929     0.04000
C399        C  0.56409108  0.64962348  0.76997677    -0.12100
C400        C  0.60962566  0.64372415  0.77888201     0.18800
C401        C  0.62096381  0.65835449  0.80663675    -0.09100
C402        C  0.58531108  0.67219308  0.82569239    -0.02100
H403        H  0.55569391  0.64229912  0.74783823     0.05300
C404        C  0.63666804  0.60858926  0.76240840     0.20800
H405        H  0.59546418  0.68728013  0.84599530     0.10500
C406        C  0.66818883  0.62059510  0.74016611    -0.15400
C407        C  0.68256363  0.58597003  0.72006578     0.03500
C408        C  0.65893684  0.53994143  0.71950478    -0.10800
C409        C  0.62592369  0.53107697  0.74186470    -0.00800
C410        C  0.62043225  0.56185734  0.76445279    -0.05900
H411        H  0.68155098  0.65686705  0.73841300     0.06500
H412        H  0.60606949  0.49775789  0.74296617     0.09900
Br413      Br  0.68369896  0.65616681  0.81984356    -0.05600
Br414      Br  0.47344186  0.67656437  0.76952344    -0.02600
Br415      Br  0.73200679  0.60829896  0.69474938     0.00300
Br416      Br  0.58970364  0.53911020  0.79809401    -0.04100
C417        C  0.50222737  0.90558128  0.96070464    -0.11500
C418        C  0.46290242  0.89202639  0.94407101     0.04000
C419        C  0.46593216  0.85501558  0.92414768    -0.12100
C420        C  0.50736702  0.83077378  0.92018450     0.18800
C421        C  0.54686225  0.84478366  0.93595886    -0.09100
C422        C  0.54417196  0.88186257  0.95586372    -0.02100
H423        H  0.43540351  0.84440248  0.91200078     0.05300
C424        C  0.50749240  0.78861015  0.90120692     0.20800
H425        H  0.57489937  0.89133333  0.96809712     0.10500
C426        C  0.51642412  0.79375970  0.87192111    -0.15400
C427        C  0.51408971  0.75459117  0.85329184     0.03500
C428        C  0.50462041  0.70761090  0.86412741    -0.10800
C429        C  0.49540899  0.70402181  0.89398121    -0.00800
C430        C  0.49605720  0.74345726  0.91204467    -0.05900
H431        H  0.52370723  0.82894623  0.86333139     0.06500
H432        H  0.48609691  0.67061085  0.90396633     0.09900
Br433      Br  0.60475028  0.81316670  0.93149123    -0.05600
Br434      Br  0.40395085  0.92236405  0.94661643    -0.02600
Br435      Br  0.51957596  0.77114933  0.81354962     0.00300
Br436      Br  0.47850198  0.73420904  0.95144738    -0.04100
loop_ 
_geom_bond_atom_site_label_1 
_geom_bond_atom_site_label_2 
_geom_bond_distance 
_geom_bond_site_symmetry_2 
_ccdc_geom_bond_type 
C1          C357   1.604       .  S
C1          C377   1.581       .  S
C1          C397   1.601       .  S
C1          C428   1.574       .  S
C2          C308   1.584       .  S
C2          C317   1.598       .  S
C2          C337   1.561       .  S
C2          C408   1.586       .  S
C3          C268   1.585       .  S
C3          C288   1.572       .  S
C3          C328   1.580       .  S
C3          C368   1.577       .  S
C4          C248   1.564       .  S
C4          C257   1.602       .  S
C4          C297   1.577       .  S
C4          C388   1.587       .  S
C5          C157   1.591       .  S
C5          C177   1.587       .  S
C5          C197   1.585       .  S
C5          C217   1.562       .  S
C6          C108   1.590       .  S
C6          C117   1.600       .  S
C6          C148   1.580       .  S
C6          C208   1.569       .  S
C7           C57   1.593       .  S
C7           C77   1.579       .  S
C7          C128   1.576       .  S
C7          C168   1.595       .  S
C8           C37   1.575       .  S
C8           C68   1.589       .  S
C8           C97   1.582       .  S
C8          C188   1.595       .  S
O9          Ni17   1.925   1_565  S
O9           C19   1.283       .  A
O10         Ni17   1.925   1_556  S
O10          C20   1.282       .  A
O11         Ni17   1.922   1_566  S
O11          C21   1.281       .  A
O12         Ni17   1.930       .  S
O12          C22   1.284       .  A
O13         Ni18   1.925       .  S
O13          C22   1.282       .  A
O14         Ni18   1.929   1_566  S
O14          C21   1.284       .  A
O15         Ni18   1.924   1_556  S
O15          C20   1.282       .  A
O16         Ni18   1.926   1_565  S
O16          C19   1.282       .  A
Ni17        Ni18   2.383       .  S
C19         C137   1.485       .  S
C20         C277   1.484       .  S
C21         C417   1.497       .  S
C22          C48   1.497       .  S
O23         Ni31   1.920       .  S
O23          C33   1.282       .  A
O24         Ni31   1.921   1_655  S
O24          C34   1.281       .  A
O25         Ni31   1.924       .  S
O25          C35   1.283       .  A
O26         Ni31   1.926   1_655  S
O26          C36   1.283       .  A
O27         Ni32   1.922   1_655  S
O27          C36   1.281       .  A
O28         Ni32   1.920       .  S
O28          C35   1.281       .  A
O29         Ni32   1.921   1_655  S
O29          C34   1.283       .  A
O30         Ni32   1.923       .  S
O30          C33   1.282       .  A
Ni31        Ni32   2.385       .  S
C33          C88   1.488       .  S
C34         C348   1.488       .  S
C35         C237   1.485       .  S
C36         C228   1.480       .  S
C37          C38   1.432       .  A
C37          C42   1.423       .  A
C38          C39   1.406       .  A
C38         Br54   1.923       .  S
C39          C40   1.400       .  A
C39          H43   1.084       .  S
C40          C44   1.494       .  S
C40          C41   1.404       .  A
C41          C42   1.401       .  A
C41         Br53   1.921       .  S
C42          H45   1.079       .  S
C44          C46   1.403       .  A
C44          C50   1.411       .  A
C46          C47   1.405       .  A
C46          H51   1.083       .  S
C47          C48   1.418       .  A
C47         Br55   1.921       .  S
C48          C49   1.408       .  A
C49          C50   1.404       .  A
C49          H52   1.083       .  S
C50         Br56   1.920       .  S
C57          C58   1.430       .  A
C57          C62   1.424       .  A
C58          C59   1.419       .  A
C58         Br74   1.923       .  S
C59          C60   1.410       .  A
C59          H63   1.082       .  S
C60          C64   1.511       .  S
C60          C61   1.408       .  A
C61          C62   1.392       .  A
C61         Br73   1.927       .  S
C62          H65   1.078       .  S
C64          C66   1.405       .  A
C64          C70   1.407       .  A
C66          C67   1.411       .  A
C66          H71   1.082       .  S
C67          C68   1.434       .  A
C67         Br75   1.923       .  S
C68          C69   1.415       .  A
C69          C70   1.397       .  A
C69          H72   1.066       .  S
C70         Br76   1.912       .  S
C77          C78   1.437       .  A
C77          C82   1.424       .  A
C78          C79   1.404       .  A
C78         Br94   1.923       .  S
C79          C80   1.395       .  A
C79          H83   1.084       .  S
C80          C84   1.482       .  S
C80          C81   1.399       .  A
C81          C82   1.397       .  A
C81         Br93   1.921       .  S
C82          H85   1.078       .  S
C84          C86   1.401       .  A
C84          C90   1.407       .  A
C86          C87   1.401       .  A
C86          H91   1.084       .  S
C87          C88   1.416       .  A
C87         Br95   1.920       .  S
C88          C89   1.408       .  A
C89          C90   1.401       .  A
C89          H92   1.083       .  S
C90         Br96   1.919       .  S
C97          C98   1.433       .  A
C97         C102   1.423       .  A
C98          C99   1.396       .  A
C98        Br114   1.928       .  S
C99         C100   1.394       .  A
C99         H103   1.080       .  S
C100        C104   1.488       .  S
C100        C101   1.403       .  A
C101        C102   1.409       .  A
C101       Br113   1.914       .  S
C102        H105   1.076       .  S
C104        C106   1.391       .  A
C104        C110   1.403       .  A
C106        C107   1.399       .  A
C106        H111   1.085       .  S
C107        C108   1.449       .  A
C107       Br115   1.933       .  S
C108        C109   1.410       .  A
C109        C110   1.415       .  A
C109        H112   1.079       .  S
C110       Br116   1.914       .  S
C117        C118   1.428       .  A
C117        C122   1.426       .  A
C118        C119   1.402       .  A
C118       Br134   1.913       .  S
C119        C120   1.397       .  A
C119        H123   1.084       .  S
C120        C124   1.478       .  S
C120        C121   1.400       .  A
C121        C122   1.403       .  A
C121       Br133   1.915       .  S
C122        H125   1.082       .  S
C124        C126   1.385       .  A
C124        C130   1.403       .  A
C126        C127   1.384       .  A
C126        H131   1.078       .  S
C127        C128   1.433       .  A
C127       Br135   1.917       .  S
C128        C129   1.422       .  A
C129        C130   1.411       .  A
C129        H132   1.079       .  S
C130       Br136   1.913       .  S
C137        C138   1.412       .  A
C137        C142   1.406       .  A
C138        C139   1.402       .  A
C138       Br154   1.920       .  S
C139        C140   1.404       .  A
C139        H143   1.084       .  S
C140        C144   1.490       .  S
C140        C141   1.410       .  A
C141        C142   1.405       .  A
C141       Br153   1.918       .  S
C142        H145   1.083       .  S
C144        C146   1.396       .  A
C144        C150   1.400       .  A
C146        C147   1.406       .  A
C146        H151   1.084       .  S
C147        C148   1.432       .  A
C147       Br155   1.905       .  S
C148        C149   1.427       .  A
C149        C150   1.400       .  A
C149        H152   1.078       .  S
C150       Br156   1.920       .  S
C157        C158   1.430       .  A
C157        C162   1.413       .  A
C158        C159   1.399       .  A
C158       Br174   1.925       .  S
C159        C160   1.404       .  A
C159        H163   1.077       .  S
C160        C164   1.514       .  S
C160        C161   1.419       .  A
C161        C162   1.409       .  A
C161       Br173   1.920       .  S
C162        H165   1.076       .  S
C164        C166   1.400       .  A
C164        C170   1.413       .  A
C166        C167   1.401       .  A
C166        H171   1.080       .  S
C167        C168   1.431       .  A
C167       Br175   1.896       .  S
C168        C169   1.426       .  A
C169        C170   1.408       .  A
C169        H172   1.083       .  S
C170       Br176   1.921       .  S
C177        C178   1.437       .  A
C177        C182   1.424       .  A
C178        C179   1.410       .  A
C178       Br194   1.914       .  S
C179        C180   1.397       .  A
C179        H183   1.084       .  S
C180        C184   1.496       .  S
C180        C181   1.399       .  A
C181        C182   1.402       .  A
C181       Br193   1.914       .  S
C182        H185   1.075       .  S
C184        C186   1.404       .  A
C184        C190   1.401       .  A
C186        C187   1.414       .  A
C186        H191   1.083       .  S
C187        C188   1.431       .  A
C187       Br195   1.924       .  S
C188        C189   1.425       .  A
C189        C190   1.397       .  A
C189        H192   1.078       .  S
C190       Br196   1.917       .  S
C197        C198   1.444       .  A
C197        C202   1.417       .  A
C198        C199   1.421       .  A
C198       Br214   1.919       .  S
C199        C200   1.404       .  A
C199        H203   1.083       .  S
C200        C204   1.493       .  S
C200        C201   1.396       .  A
C201        C202   1.378       .  A
C201       Br213   1.912       .  S
C202        H205   1.079       .  S
C204        C206   1.390       .  A
C204        C210   1.410       .  A
C206        C207   1.377       .  A
C206        H211   1.084       .  S
C207        C208   1.430       .  A
C207       Br215   1.915       .  S
C208        C209   1.423       .  A
C209        C210   1.420       .  A
C209        H212   1.080       .  S
C210       Br216   1.913       .  S
C217        C218   1.437       .  A
C217        C222   1.414       .  A
C218        C219   1.406       .  A
C218       Br234   1.927       .  S
C219        C220   1.399       .  A
C219        H223   1.084       .  S
C220        C224   1.493       .  S
C220        C221   1.403       .  A
C221        C222   1.399       .  A
C221       Br233   1.920       .  S
C222        H225   1.075       .  S
C224        C226   1.407       .  A
C224        C230   1.413       .  A
C226        C227   1.404       .  A
C226        H231   1.083       .  S
C227        C228   1.409       .  A
C227       Br235   1.919       .  S
C228        C229   1.403       .  A
C229        C230   1.402       .  A
C229        H232   1.084       .  S
C230       Br236   1.920       .  S
C237        C238   1.413       .  A
C237        C242   1.406       .  A
C238        C239   1.400       .  A
C238       Br254   1.920       .  S
C239        C240   1.403       .  A
C239        H243   1.084       .  S
C240        C244   1.487       .  S
C240        C241   1.411       .  A
C241        C242   1.402       .  A
C241       Br253   1.919       .  S
C242        H245   1.084       .  S
C244        C246   1.394       .  A
C244        C250   1.404       .  A
C246        C247   1.399       .  A
C246        H251   1.084       .  S
C247        C248   1.435       .  A
C247       Br255   1.920       .  S
C248        C249   1.421       .  A
C249        C250   1.402       .  A
C249        H252   1.079       .  S
C250       Br256   1.919       .  S
C257        C258   1.438       .  A
C257        C262   1.419       .  A
C258        C259   1.408       .  A
C258       Br274   1.914       .  S
C259        C260   1.400       .  A
C259        H263   1.080       .  S
C260        C264   1.508       .  S
C260        C261   1.411       .  A
C261        C262   1.396       .  A
C261       Br273   1.929       .  S
C262        H265   1.062       .  S
C264        C266   1.396       .  A
C264        C270   1.423       .  A
C266        C267   1.380       .  A
C266        H271   1.080       .  S
C267        C268   1.429       .  A
C267       Br275   1.924       .  S
C268        C269   1.413       .  A
C269        C270   1.420       .  A
C269        H272   1.082       .  S
C270       Br276   1.916       .  S
C277        C278   1.412       .  A
C277        C282   1.406       .  A
C278        C279   1.401       .  A
C278       Br294   1.920       .  S
C279        C280   1.403       .  A
C279        H283   1.084       .  S
C280        C284   1.486       .  S
C280        C281   1.409       .  A
C281        C282   1.404       .  A
C281       Br293   1.918       .  S
C282        H285   1.084       .  S
C284        C286   1.396       .  A
C284        C290   1.400       .  A
C286        C287   1.405       .  A
C286        H291   1.084       .  S
C287        C288   1.438       .  A
C287       Br295   1.925       .  S
C288        C289   1.415       .  A
C289        C290   1.399       .  A
C289        H292   1.072       .  S
C290       Br296   1.918       .  S
C297        C298   1.442       .  A
C297        C302   1.420       .  A
C298        C299   1.412       .  A
C298       Br314   1.926       .  S
C299        C300   1.398       .  A
C299        H303   1.083       .  S
C300        C304   1.482       .  S
C300        C301   1.395       .  A
C301        C302   1.385       .  A
C301       Br313   1.912       .  S
C302        H305   1.084       .  S
C304        C306   1.391       .  A
C304        C310   1.399       .  A
C306        C307   1.404       .  A
C306        H311   1.084       .  S
C307        C308   1.441       .  A
C307       Br315   1.917       .  S
C308        C309   1.423       .  A
C309        C310   1.400       .  A
C309        H312   1.071       .  S
C310       Br316   1.921       .  S
C317        C318   1.424       .  A
C317        C322   1.417       .  A
C318        C319   1.413       .  A
C318       Br334   1.911       .  S
C319        C320   1.410       .  A
C319        H323   1.082       .  S
C320        C324   1.511       .  S
C320        C321   1.417       .  A
C321        C322   1.397       .  A
C321       Br333   1.924       .  S
C322        H325   1.082       .  S
C324        C326   1.403       .  A
C324        C330   1.413       .  A
C326        C327   1.407       .  A
C326        H331   1.083       .  S
C327        C328   1.431       .  A
C327       Br335   1.922       .  S
C328        C329   1.418       .  A
C329        C330   1.401       .  A
C329        H332   1.068       .  S
C330       Br336   1.917       .  S
C337        C338   1.437       .  A
C337        C342   1.420       .  A
C338        C339   1.403       .  A
C338       Br354   1.929       .  S
C339        C340   1.398       .  A
C339        H343   1.084       .  S
C340        C344   1.487       .  S
C340        C341   1.401       .  A
C341        C342   1.399       .  A
C341       Br353   1.918       .  S
C342        H345   1.082       .  S
C344        C346   1.403       .  A
C344        C350   1.408       .  A
C346        C347   1.404       .  A
C346        H351   1.084       .  S
C347        C348   1.416       .  A
C347       Br355   1.921       .  S
C348        C349   1.406       .  A
C349        C350   1.399       .  A
C349        H352   1.083       .  S
C350       Br356   1.919       .  S
C357        C358   1.438       .  A
C357        C362   1.423       .  A
C358        C359   1.411       .  A
C358       Br374   1.928       .  S
C359        C360   1.403       .  A
C359        H363   1.082       .  S
C360        C364   1.486       .  S
C360        C361   1.396       .  A
C361        C362   1.400       .  A
C361       Br373   1.917       .  S
C362        H365   1.061       .  S
C364        C366   1.381       .  A
C364        C370   1.405       .  A
C366        C367   1.379       .  A
C366        H371   1.067       .  S
C367        C368   1.433       .  A
C367       Br375   1.930       .  S
C368        C369   1.428       .  A
C369        C370   1.418       .  A
C369        H372   1.078       .  S
C370       Br376   1.912       .  S
C377        C378   1.434       .  A
C377        C382   1.427       .  A
C378        C379   1.398       .  A
C378       Br394   1.907       .  S
C379        C380   1.397       .  A
C379        H383   1.085       .  S
C380        C384   1.492       .  S
C380        C381   1.405       .  A
C381        C382   1.412       .  A
C381       Br393   1.916       .  S
C382        H385   1.077       .  S
C384        C386   1.407       .  A
C384        C390   1.397       .  A
C386        C387   1.414       .  A
C386        H391   1.083       .  S
C387        C388   1.428       .  A
C387       Br395   1.923       .  S
C388        C389   1.423       .  A
C389        C390   1.392       .  A
C389        H392   1.080       .  S
C390       Br396   1.914       .  S
C397        C398   1.440       .  A
C397        C402   1.423       .  A
C398        C399   1.398       .  A
C398       Br414   1.907       .  S
C399        C400   1.391       .  A
C399        H403   1.085       .  S
C400        C404   1.486       .  S
C400        C401   1.401       .  A
C401        C402   1.411       .  A
C401       Br413   1.912       .  S
C402        H405   1.080       .  S
C404        C406   1.403       .  A
C404        C410   1.386       .  A
C406        C407   1.422       .  A
C406        H411   1.083       .  S
C407        C408   1.444       .  A
C407       Br415   1.924       .  S
C408        C409   1.417       .  A
C409        C410   1.377       .  A
C409        H412   1.083       .  S
C410       Br416   1.895       .  S
C417        C418   1.420       .  A
C417        C422   1.410       .  A
C418        C419   1.402       .  A
C418       Br434   1.921       .  S
C419        C420   1.400       .  A
C419        H423   1.084       .  S
C420        C424   1.483       .  S
C420        C421   1.405       .  A
C421        C422   1.403       .  A
C421       Br433   1.918       .  S
C422        H425   1.083       .  S
C424        C426   1.397       .  A
C424        C430   1.398       .  A
C426        C427   1.407       .  A
C426        H431   1.084       .  S
C427        C428   1.435       .  A
C427       Br435   1.921       .  S
C428        C429   1.421       .  A
C429        C430   1.396       .  A
C429        H432   1.076       .  S
C430       Br436   1.920       .  S
