geometry optimzed in LAMMPS
_audit_creation_date              2020-11-30 
_audit_creation_method            'lammps2cif' 
_symmetry_space_group_name_H-M    'P1' 
_symmetry_Int_Tables_number       1 
_symmetry_cell_setting            triclinic 
loop_ 
_symmetry_equiv_pos_as_xyz 
  x,y,z 
_cell_length_a                    45.61260042 
_cell_length_b                    44.51922949811199 
_cell_length_c                    45.70443979059106 
_cell_angle_alpha                 86.8064380126095 
_cell_angle_beta                  78.12425340962677 
_cell_angle_gamma                 78.65266396397821 
loop_ 
_atom_site_label 
_atom_site_type_symbol 
_atom_site_fract_x 
_atom_site_fract_y 
_atom_site_fract_z 
_atom_site_charge 
O1          O  0.06854687  0.46474922  0.51440953    -0.80100
O2          O  0.45321167  0.49697828  0.46349028    -0.64800
O3          O  0.03367846  0.99622723  0.48755556    -1.11400
C4          C  0.97174144  0.00891410  0.08600782     1.06800
O5          O  0.43915598  0.04038341  0.99437379    -0.78000
O6          O  0.46226797  0.06260918  0.03502013    -0.65600
Ni7        Ni  0.06210941  0.47076083  0.47420931     1.34900
C8          C  0.48972772  0.06579413  0.02725980     0.85500
O9          O  0.50904891  0.49861987  0.43319805    -0.78600
O10         O  0.05777013  0.47507957  0.43301751    -0.88800
C11         C  0.43608520  0.02319251  0.47605236     0.85100
O12         O  0.04286874  0.43608928  0.47992678    -0.67000
O13         O  0.44797137  0.01674909  0.07458900    -0.86300
C14         C  0.01596443  0.43326380  0.47913122     0.85900
C15         C  0.53596854  0.48717681  0.41981805     1.07500
H16         H  0.46813262  0.47749735  0.02321375     0.39300
O17         O  0.47295119  0.49732374  0.01685622    -1.09000
O18         O  0.01209168  0.04353570  0.02337419    -0.65600
Ni19       Ni  0.01613691  0.00012829  0.02948471     1.26300
O20         O  0.49521929  0.45571999  0.47569476    -0.65900
O21         O  0.99906528  0.00442906  0.07104135    -0.78200
C22         C  0.07036546  0.48248436  0.02985072     0.85300
O23         O  0.05500256  0.00143766  0.03755620    -0.65300
Ni24       Ni  0.44384184  0.02796226  0.03419647     1.27400
Ni25       Ni  0.49033398  0.49926144  0.47430129     1.26100
H26         H  0.04076036  0.01429699  0.47857544     0.39800
O27         O  0.03951702  0.48723203  0.27546823    -0.73700
O28         O  0.01633901  0.99038721  0.20537944    -0.73700
O29         O  0.03192320  0.03010568  0.24033341    -0.73700
O30         O  0.02597912  0.44649597  0.24065929    -0.73800
O31         O  0.47850708  0.45277536  0.26620148    -0.73700
O32         O  0.48418148  0.03951836  0.26575062    -0.73700
O33         O  0.46828657  0.00072545  0.23067582    -0.73700
O34         O  0.49183653  0.49324511  0.30185312    -0.73700
Ni35       Ni  0.03267533  0.98620074  0.24081129     1.25400
Ni36       Ni  0.47456474  0.49693789  0.26678955     1.25400
C37         C  0.02066523  0.48941553  0.30045366     0.88500
C38         C  0.98762401  0.99659324  0.20605720     0.88500
C39         C  0.00836031  0.04940558  0.25284157     0.88500
C40         C  0.00294352  0.43485327  0.25376401     0.88600
O41         O  0.29041112  0.03707421  0.47681107    -0.73700
O42         O  0.20923445  0.02348356  0.49506334    -0.73700
O43         O  0.24889621  0.02956948  0.02961072    -0.73700
O44         O  0.24923193  0.03043793  0.44228432    -0.73800
O45         O  0.25432878  0.47283596  0.46204770    -0.73700
O46         O  0.25740389  0.47130002  0.04844507    -0.73700
O47         O  0.21324077  0.46972927  0.01597812    -0.73700
O48         O  0.29779259  0.47145872  0.99435766    -0.73700
Ni49       Ni  0.24918283  0.03183769  0.48572505     1.25400
Ni50       Ni  0.25599773  0.46889224  0.00539926     1.25400
C51         C  0.30655471  0.49985587  0.48913389     0.88500
C52         C  0.19390990  0.49492369  0.01977703     0.88500
C53         C  0.25233099  0.49695006  0.06238344     0.88500
C54         C  0.24882188  0.49806268  0.44698191     0.88600
O55         O  0.04435641  0.24905510  0.47275890    -0.73700
O56         O  0.45657966  0.25289778  0.47446689    -0.73700
O57         O  0.99565776  0.29448552  0.46998980    -0.73700
O58         O  0.00630364  0.20715641  0.47772388    -0.73800
O59         O  0.49345382  0.20948512  0.02872990    -0.73700
O60         O  0.48494660  0.29611943  0.02060314    -0.73700
O61         O  0.44489523  0.25602104  0.02533451    -0.73700
O62         O  0.03337702  0.24966830  0.02346147    -0.73700
Ni63       Ni  0.00089033  0.25073264  0.47203556     1.25400
Ni64       Ni  0.48876589  0.25295987  0.02619571     1.25400
C65         C  0.05280451  0.24817911  0.99828453     0.88500
C66         C  0.43509350  0.25389120  0.00101815     0.88500
C67         C  0.48998995  0.30841223  0.99456633     0.88500
C68         C  0.50057406  0.19269774  0.00559240     0.88600
O69         O  0.05710495  0.23367445  0.24469325    -0.73700
O70         O  0.48453491  0.24786224  0.21357181    -0.73700
O71         O  0.01950354  0.28464433  0.22957482    -0.73700
O72         O  0.02172523  0.19695266  0.22941264    -0.73800
O73         O  0.49487619  0.19948864  0.27579739    -0.73700
O74         O  0.49287492  0.28664114  0.27612210    -0.73700
O75         O  0.45721214  0.25053634  0.26021540    -0.73700
O76         O  0.03012516  0.23617323  0.29145086    -0.73700
Ni77       Ni  0.02172438  0.24068043  0.22765195     1.25400
Ni78       Ni  0.49274942  0.24323524  0.27750763     1.25400
C79         C  0.05561154  0.23326396  0.27293592     0.88500
C80         C  0.45897671  0.25115913  0.23188164     0.88500
C81         C  0.50615270  0.30025835  0.25315509     0.88500
C82         C  0.50853919  0.18345327  0.25269034     0.88600
O83         O  0.33127675  0.23488494  0.19796029    -0.80100
O84         O  0.19134174  0.24006772  0.25409487    -0.64800
O85         O  0.26919063  0.25756395  0.22025722    -1.11400
C86         C  0.28065938  0.26010517  0.31754554     1.06800
O87         O  0.18261637  0.26039783  0.29919643    -0.78000
O88         O  0.21910463  0.30387062  0.27905160    -0.65600
Ni89       Ni  0.29292399  0.23223314  0.18802503     1.34900
C90         C  0.24303351  0.31441823  0.26748165     0.85500
O91         O  0.21698366  0.25661444  0.20039024    -0.78600
O92         O  0.25780552  0.22828325  0.17250719    -0.88800
C93         C  0.17437633  0.24705037  0.27925321     0.85100
O94         O  0.29142423  0.19504361  0.21069961    -0.67000
O95         O  0.25563935  0.27836736  0.31738192    -0.86300
C96         C  0.26701959  0.18591151  0.22297473     0.85900
C97         C  0.23109585  0.24442465  0.17596251     1.07500
H98         H  0.24687308  0.22169264  0.28029225     0.39300
O99         O  0.24426706  0.24285557  0.27362657    -1.09000
O100        O  0.26948948  0.29709420  0.26224212    -0.65600
Ni101      Ni  0.28295292  0.25279678  0.25690214     1.26300
O102        O  0.24162033  0.20447862  0.23046207    -0.65900
O103        O  0.29568569  0.24609265  0.29427754    -0.78200
C104        C  0.33943860  0.25016200  0.21652504     0.85300
O105        O  0.32133360  0.26210871  0.23948248    -0.65300
Ni106      Ni  0.22060501  0.26886814  0.30543143     1.27400
Ni107      Ni  0.23015156  0.24862928  0.23703786     1.26100
H108        H  0.26667450  0.27855083  0.21335595     0.39800
O109        O  0.23653900  0.22764657  0.04229951    -0.73700
O110        O  0.26405888  0.22632879  0.45682501    -0.73700
O111        O  0.29157028  0.22767804  0.00338491    -0.73700
O112        O  0.20684053  0.22525107  0.99685979    -0.73800
O113        O  0.19775687  0.27711851  0.49337183    -0.73700
O114        O  0.28232002  0.28015453  0.50067752    -0.73700
O115        O  0.25327419  0.27706280  0.45463881    -0.73700
O116        O  0.22523839  0.27834915  0.04054631    -0.73700
Ni117      Ni  0.24964951  0.22472087  0.00019735     1.25400
Ni118      Ni  0.23962180  0.28034876  0.49688346     1.25400
C119        C  0.22589863  0.25318784  0.05552185     0.88500
C120        C  0.26447760  0.25134126  0.44177450     0.88500
C121        C  0.30225217  0.25520528  0.50171937     0.88500
C122        C  0.18695999  0.25015091  0.99537139     0.88600
O123        O  0.22382788  0.46536217  0.26115397    -0.73700
O124        O  0.23360219  0.05178782  0.23949336    -0.73700
O125        O  0.22771214  0.01206841  0.19760773    -0.73700
O126        O  0.22758841  0.50681073  0.30191202    -0.73800
O127        O  0.27778893  0.49241473  0.29309774    -0.73700
O128        O  0.27716625  0.99328490  0.18925300    -0.73700
O129        O  0.28379309  0.03418538  0.22943216    -0.73700
O130        O  0.27442390  0.45089484  0.25172971    -0.73700
Ni131      Ni  0.22650049  0.50801579  0.25890942     1.25400
Ni132      Ni  0.27803189  0.99230929  0.23234247     1.25400
C133        C  0.24774866  0.44424298  0.25718384     0.88500
C134        C  0.26096722  0.05654704  0.23370095     0.88500
C135        C  0.25282448  0.00292236  0.17853549     0.88500
C136        C  0.25234536  0.49920598  0.31233052     0.88600
C137        C  0.26577451  0.08867200  0.23176724    -0.04600
C138        C  0.27822208  0.10132282  0.20411967    -0.01700
C139        C  0.27866445  0.13303223  0.20137091     0.03300
C140        C  0.26769598  0.15222638  0.22658073    -0.04600
C141        C  0.25631774  0.13911661  0.25453595    -0.01700
C142        C  0.25515280  0.10756987  0.25700010     0.03300
C143        C  0.28924238  0.08190690  0.17813979     0.37900
C144        C  0.24551289  0.15770653  0.28102499     0.37900
C145        C  0.24300978  0.09444734  0.28567900     0.36400
C146        C  0.28827636  0.14620558  0.17203018     0.36400
N147        N  0.23329406  0.08407702  0.30856397    -0.38500
N148        N  0.29554971  0.15669911  0.14853897    -0.38500
N149        N  0.23640667  0.17139400  0.30287710    -0.37900
N150        N  0.29806681  0.06629818  0.15752099    -0.37900
C151        C  0.24092758  0.34828528  0.26313343    -0.04600
C152        C  0.22605285  0.36822090  0.28708822    -0.01700
C153        C  0.22834824  0.39951119  0.28514582     0.03300
C154        C  0.24460796  0.41152258  0.25892164    -0.04600
C155        C  0.25821703  0.39210723  0.23446815    -0.01700
C156        C  0.25636725  0.36069539  0.23649484     0.03300
C157        C  0.20922312  0.35646546  0.31433722     0.37900
C158        C  0.27392845  0.40459085  0.20697350     0.37900
C159        C  0.26960609  0.34170599  0.21055785     0.36400
C160        C  0.21572840  0.41891814  0.31095271     0.36400
N161        N  0.28033711  0.32763552  0.18915475    -0.38500
N162        N  0.20601277  0.43434840  0.33160619    -0.38500
N163        N  0.28644176  0.41456757  0.18507609    -0.37900
N164        N  0.19555761  0.34717813  0.33597439    -0.37900
C165        C  0.21583003  0.25322361  0.08871349    -0.04600
C166        C  0.21342752  0.22516308  0.10472551    -0.01700
C167        C  0.21389904  0.22329983  0.13533839     0.03300
C168        C  0.21685940  0.24908101  0.14986378    -0.04600
C169        C  0.21343801  0.27807881  0.13570650    -0.01700
C170        C  0.21206606  0.28036994  0.10518187     0.03300
C171        C  0.21208196  0.19756893  0.09000616     0.37900
C172        C  0.21449997  0.30503825  0.15169238     0.37900
C173        C  0.20817241  0.31052144  0.09104033     0.36400
C174        C  0.21346982  0.19438419  0.15168089     0.36400
N175        N  0.20477777  0.33470841  0.08008497    -0.38500
N176        N  0.21309024  0.17145867  0.16486627    -0.38500
N177        N  0.21549874  0.32649982  0.16436101    -0.37900
N178        N  0.21146334  0.17516717  0.07866877    -0.37900
C179        C  0.29051562  0.25457462  0.34624657    -0.04600
C180        C  0.28937359  0.22588733  0.36052095    -0.01700
C181        C  0.28259297  0.22395202  0.39198835     0.03300
C182        C  0.27802519  0.25085544  0.40907296    -0.04600
C183        C  0.28582223  0.27795022  0.39416194    -0.01700
C184        C  0.29130744  0.27990012  0.36280389     0.03300
C185        C  0.29253585  0.19890143  0.34282983     0.37900
C186        C  0.28782846  0.30416128  0.41066105     0.37900
C187        C  0.29600760  0.30850217  0.34739325     0.36400
C188        C  0.27884168  0.19454450  0.40608579     0.36400
N189        N  0.29970162  0.33126149  0.33501171    -0.38500
N190        N  0.27595940  0.17094956  0.41704665    -0.38500
N191        N  0.28945541  0.32511768  0.42371958    -0.37900
N192        N  0.29531572  0.17733883  0.32874159    -0.37900
C193        C  0.14335525  0.23973454  0.28494475    -0.04600
C194        C  0.13880988  0.21229345  0.27372123    -0.01700
C195        C  0.10919428  0.20846960  0.27279024     0.03300
C196        C  0.08410479  0.23164304  0.28354071    -0.04600
C197        C  0.08812475  0.25686667  0.29858912    -0.01700
C198        C  0.11778743  0.26117720  0.29899917     0.03300
C199        C  0.16445876  0.18827065  0.26216831     0.37900
C200        C  0.06191400  0.27986713  0.31118565     0.37900
C201        C  0.12170812  0.28909165  0.31141205     0.36400
C202        C  0.10449640  0.18125567  0.25964095     0.36400
N203        N  0.12471546  0.31144539  0.32123402    -0.38500
N204        N  0.10074333  0.15957967  0.24917765    -0.38500
N205        N  0.04099488  0.29814396  0.32124983    -0.37900
N206        N  0.18453843  0.16888292  0.25269320    -0.37900
C207        C  0.43094195  0.25356980  0.22039735    -0.04600
C208        C  0.40888442  0.28072482  0.22407602    -0.01700
C209        C  0.37929605  0.28049558  0.21980364     0.03300
C210        C  0.37178038  0.25284125  0.21247738    -0.04600
C211        C  0.39509298  0.22675949  0.20511157    -0.01700
C212        C  0.42472429  0.22721215  0.20908376     0.03300
C213        C  0.41651573  0.30861545  0.23284838     0.37900
C214        C  0.38838040  0.19863521  0.19576668     0.37900
C215        C  0.44819692  0.19975669  0.20375702     0.36400
C216        C  0.35652705  0.30855830  0.22346281     0.36400
N217        N  0.46681374  0.17782404  0.19949998    -0.38500
N218        N  0.33848943  0.33100511  0.22637365    -0.38500
N219        N  0.38318140  0.17616060  0.18827034    -0.37900
N220        N  0.42256496  0.33094025  0.23968190    -0.37900
C221        C  0.33657393  0.25587818  0.50133507    -0.04600
C222        C  0.34441726  0.27398700  0.02092155    -0.01700
C223        C  0.37625434  0.27418339  0.02029744     0.03300
C224        C  0.40197239  0.25623423  0.49982396    -0.04600
C225        C  0.39240336  0.23674051  0.48133701    -0.01700
C226        C  0.36064163  0.23651316  0.48215489     0.03300
C227        C  0.32108308  0.29399537  0.04119437     0.37900
C228        C  0.41535517  0.21599137  0.46148964     0.37900
C229        C  0.35271192  0.21667735  0.46211926     0.36400
C230        C  0.38401269  0.29597826  0.03840483     0.36400
N231        N  0.34623966  0.20095756  0.44610930    -0.38500
N232        N  0.39016136  0.31354063  0.05276107    -0.38500
N233        N  0.43345014  0.19933529  0.44546962    -0.37900
N234        N  0.30242118  0.30982865  0.05753027    -0.37900
C235        C  0.08726878  0.24834427  0.99708046    -0.04600
C236        C  0.10170842  0.27220166  0.98231135    -0.01700
C237        C  0.13344958  0.27275367  0.98154556     0.03300
C238        C  0.15260686  0.24920050  0.99528539    -0.04600
C239        C  0.13809347  0.22490809  0.00940995    -0.01700
C240        C  0.10633152  0.22453270  0.01020404     0.03300
C241        C  0.08366631  0.29671457  0.96778598     0.37900
C242        C  0.15558080  0.19995985  0.02386705     0.37900
C243        C  0.09442469  0.20082291  0.52402164     0.36400
C244        C  0.14649233  0.29754264  0.96551823     0.36400
N245        N  0.08425420  0.18024105  0.53534705    -0.38500
N246        N  0.15680131  0.31736751  0.95259905    -0.38500
N247        N  0.17039859  0.18091107  0.53442966    -0.37900
N248        N  0.06934804  0.31625100  0.95604856    -0.37900
C249        C  0.25128616  0.49835190  0.34709812    -0.04600
C250        C  0.22568596  0.51410627  0.36793144    -0.01700
C251        C  0.22488245  0.51369054  0.39970804     0.03300
C252        C  0.24945266  0.49766896  0.41260101    -0.04600
C253        C  0.27449718  0.48095229  0.39218034    -0.01700
C254        C  0.27535545  0.48110979  0.36034789     0.03300
C255        C  0.19926254  0.53071142  0.35710203     0.37900
C256        C  0.29997112  0.46346719  0.40394206     0.37900
C257        C  0.30073560  0.46186887  0.34148990     0.36400
C258        C  0.19740642  0.52838359  0.41951821     0.36400
N259        N  0.32087164  0.44619616  0.32654021    -0.38500
N260        N  0.17510215  0.53977281  0.43508425    -0.38500
N261        N  0.31885250  0.04015413  0.38475448    -0.37900
N262        N  0.17790433  0.54385416  0.34877167    -0.37900
C263        C  0.25599690  0.00394178  0.07808793    -0.04600
C264        C  0.22844710  0.01377252  0.09905220    -0.01700
C265        C  0.22727501  0.01324265  0.13092856     0.03300
C266        C  0.25391387  0.00337080  0.14365636    -0.04600
C267        C  0.28093010  0.49395159  0.13866727    -0.01700
C268        C  0.28044445  0.49251810  0.10723486     0.03300
C269        C  0.20062718  0.02389492  0.08772058     0.37900
C270        C  0.31028667  0.48989266  0.14731298     0.37900
C271        C  0.30890175  0.48677893  0.08558501     0.36400
C272        C  0.19794837  0.02292680  0.15046679     0.36400
N273        N  0.33162303  0.48244772  0.06826038    -0.38500
N274        N  0.17439813  0.03064937  0.16590866    -0.38500
N275        N  0.33389221  0.48686040  0.15389910    -0.37900
N276        N  0.17843715  0.03195137  0.07862537    -0.36100
C277        C  0.50600330  0.33457582  0.25397271    -0.04600
C278        C  0.98332607  0.35416385  0.27430387    -0.01700
C279        C  0.98314639  0.38613470  0.27500678     0.03300
C280        C  0.00455996  0.40013182  0.25434681    -0.04600
C281        C  0.52760968  0.38038095  0.23434228    -0.01700
C282        C  0.52861067  0.34818123  0.23465363     0.03300
C283        C  0.95967386  0.34177621  0.29483799     0.37900
C284        C  0.55027353  0.39288788  0.21261245     0.37900
C285        C  0.55404844  0.32903898  0.21561200     0.36400
C286        C  0.96108528  0.40421755  0.29804370     0.36400
N287        N  0.57453389  0.31392336  0.20053675    -0.38500
N288        N  0.94350769  0.41838897  0.31658825    -0.38500
N289        N  0.56829033  0.40267203  0.19504440    -0.37900
N290        N  0.94075802  0.33209487  0.31131453    -0.37900
C291        C  0.00891410  0.08359331  0.25283812    -0.04600
C292        C  0.02819770  0.09756906  0.22997493    -0.01700
C293        C  0.02906901  0.12936854  0.23058040     0.03300
C294        C  0.50896065  0.14887980  0.25293291    -0.04600
C295        C  0.48910286  0.13484872  0.27542253    -0.01700
C296        C  0.48972256  0.10273271  0.27581830     0.03300
C297        C  0.04679903  0.07955902  0.20495220     0.37900
C298        C  0.46744561  0.15312563  0.29858787     0.37900
C299        C  0.47103253  0.08946176  0.30090126     0.36400
C300        C  0.05165373  0.14139942  0.20836608     0.36400
N301        N  0.45620076  0.07897564  0.32099751    -0.38500
N302        N  0.06995976  0.15073864  0.19076678    -0.38500
N303        N  0.45008749  0.16740767  0.31720641    -0.37900
N304        N  0.06157119  0.06540265  0.18482492    -0.37900
C305        C  0.00802632  0.40242739  0.48344878    -0.04600
C306        C  0.01968342  0.38010328  0.00500800    -0.01700
C307        C  0.01218444  0.35084247  0.00975622     0.03300
C308        C  0.99476987  0.34268872  0.49130227    -0.04600
C309        C  0.48448979  0.36239250  0.46857617    -0.01700
C310        C  0.49082063  0.39228735  0.46484657     0.03300
C311        C  0.03802150  0.39001588  0.02376765     0.37900
C312        C  0.46695748  0.35205547  0.44930632     0.37900
C313        C  0.47958526  0.41236167  0.44179411     0.36400
C314        C  0.02437732  0.33083291  0.03239976     0.36400
N315        N  0.47035751  0.42839285  0.42357360    -0.38500
N316        N  0.03416593  0.31512973  0.05053080    -0.38500
N317        N  0.45308151  0.34379072  0.43384943    -0.37900
N318        N  0.05278528  0.39768730  0.03866583    -0.37900
C319        C  0.50276107  0.15868047  0.00959078    -0.04600
C320        C  0.50144807  0.14269138  0.48428421    -0.01700
C321        C  0.49806664  0.11206426  0.49007760     0.03300
C322        C  0.49575745  0.09701225  0.02101587    -0.04600
C323        C  0.00274136  0.11346210  0.04324129    -0.01700
C324        C  0.00625886  0.14416114  0.03767946     0.03300
C325        C  0.50095065  0.15510104  0.45431364     0.37900
C326        C  0.00562882  0.09891952  0.07201694     0.37900
C327        C  0.01420720  0.16023519  0.06082760     0.36400
C328        C  0.49278287  0.09403855  0.46676695     0.36400
N329        N  0.02056285  0.17286662  0.07940603    -0.38500
N330        N  0.48848742  0.07967658  0.44826952    -0.38500
N331        N  0.00795532  0.08729402  0.09492980    -0.37900
N332        N  0.50089659  0.16454529  0.43020650    -0.37900
C333        C  0.40418305  0.02596878  0.47168576    -0.04600
C334        C  0.39152449  0.48117626  0.48574158    -0.01700
C335        C  0.36133601  0.47709670  0.48928240     0.03300
C336        C  0.34372632  0.01990875  0.47143188    -0.04600
C337        C  0.34811038  0.04185623  0.98844063    -0.01700
C338        C  0.37801879  0.04635135  0.98663856     0.03300
C339        C  0.41323925  0.45872016  0.49869627     0.37900
C340        C  0.32371246  0.05849260  0.01071120     0.37900
C341        C  0.38267850  0.07185530  0.00253978     0.36400
C342        C  0.35307429  0.44942660  0.50431814     0.36400
N343        N  0.38614825  0.09244447  0.01497324    -0.38500
N344        N  0.34667836  0.42729530  0.51622922    -0.38500
N345        N  0.30447027  0.07147300  0.02875395    -0.37900
N346        N  0.43016670  0.44077474  0.50933743    -0.37900
C347        C  0.09999938  0.48801425  0.03304759    -0.04600
C348        C  0.12008159  0.46858117  0.54420327    -0.01700
C349        C  0.15065551  0.47130625  0.54167317     0.03300
C350        C  0.16087485  0.49431631  0.02779339    -0.04600
C351        C  0.14654873  0.01602722  0.00020018    -0.01700
C352        C  0.11602637  0.01257580  0.00799083     0.03300
C353        C  0.10962854  0.44129795  0.55776166     0.37900
C354        C  0.15331842  0.04359250  0.98375903     0.37900
C355        C  0.09261429  0.03594604  0.99843518     0.36400
C356        C  0.17117630  0.44694890  0.55384618     0.36400
N357        N  0.07442085  0.05479651  0.99051852    -0.38500
N358        N  0.18741694  0.42740346  0.56352347    -0.38500
N359        N  0.15850446  0.06571743  0.97093387    -0.37900
N360        N  0.10135307  0.41954134  0.56859369    -0.37900
C361        C  0.53201579  0.48797944  0.32828755    -0.04600
C362        C  0.54487497  0.00636654  0.34338195    -0.01700
C363        C  0.54866951  0.00431644  0.37319321     0.03300
C364        C  0.54119792  0.48673323  0.38709776    -0.04600
C365        C  0.04297744  0.45887408  0.37283202    -0.01700
C366        C  0.03827471  0.45954119  0.34331202     0.03300
C367        C  0.54723466  0.03447212  0.32616962     0.37900
C368        C  0.04756089  0.42995960  0.38910640     0.37900
C369        C  0.03847394  0.43130518  0.32881173     0.36400
C370        C  0.55504870  0.03021542  0.38707713     0.36400
N371        N  0.03874408  0.40877529  0.31720292    -0.38500
N372        N  0.56035369  0.05066728  0.39828217    -0.38500
N373        N  0.05132200  0.40691566  0.40210117    -0.37900
N374        N  0.54935613  0.05684024  0.31241436    -0.37900
C375        C  0.96833657  0.00414473  0.11848113    -0.04600
C376        C  0.95679645  0.02907203  0.13793725    -0.01700
C377        C  0.96143726  0.02621283  0.16758499     0.03300
C378        C  0.97719591  0.99829312  0.17760585    -0.04600
C379        C  0.47496160  0.47340994  0.15895196    -0.01700
C380        C  0.47042272  0.47601806  0.12939399     0.03300
C381        C  0.94217363  0.05814672  0.12685457     0.37900
C382        C  0.48709939  0.44374375  0.17084298     0.37900
C383        C  0.47802957  0.44900849  0.11086851     0.36400
C384        C  0.95233621  0.05260528  0.18688989     0.36400
N385        N  0.48410160  0.42752370  0.09607213    -0.38500
N386        N  0.94525597  0.07368303  0.20226470    -0.38500
N387        N  0.49657861  0.41987282  0.18004176    -0.37900
N388        N  0.93047166  0.08128597  0.11792020    -0.37900
O389        O  0.06908412  0.46090993  0.01357447    -0.80100
O390        O  0.45295434  0.49497095  0.96409667    -0.64800
O391        O  0.03176623  0.99570050  0.98732791    -1.11400
C392        C  0.97165123  0.01396381  0.58493994     1.06800
O393        O  0.44265691  0.04255527  0.49156962    -0.78000
O394        O  0.46470842  0.06572063  0.53257306    -0.65600
Ni395      Ni  0.06254916  0.46872293  0.97356640     1.34900
C396        C  0.49235717  0.06822062  0.52509543     0.85500
O397        O  0.50876827  0.49616849  0.93345454    -0.78600
O398        O  0.05818686  0.47460315  0.93249273    -0.88800
C399        C  0.43380075  0.02200969  0.97689380     0.85100
O400        O  0.04387773  0.43373687  0.97758025    -0.67000
O401        O  0.44823894  0.02166695  0.57282031    -0.86300
C402        C  0.01671586  0.43076234  0.97823567     0.85900
C403        C  0.53580805  0.48575544  0.91968160     1.07500
H404        H  0.46912907  0.47947028  0.52302173     0.39300
O405        O  0.47306345  0.49957398  0.51652270    -1.09000
O406        O  0.01454228  0.04552117  0.52174638    -0.65600
Ni407      Ni  0.01741249  0.00255819  0.52945172     1.26300
O408        O  0.49525961  0.45324563  0.97630843    -0.65900
O409        O  0.99933220  0.00878345  0.57071018    -0.78200
C410        C  0.06994427  0.48708497  0.52970469     0.85300
O411        O  0.05639759  0.00361528  0.53783967    -0.65300
Ni412      Ni  0.44551323  0.03170364  0.53204215     1.27400
Ni413      Ni  0.49029841  0.49688561  0.97470399     1.26100
H414        H  0.03828384  0.01431516  0.97909378     0.39800
O415        O  0.04105791  0.48789343  0.77425976    -0.73700
O416        O  0.01248148  0.99450431  0.70500566    -0.73700
O417        O  0.02765704  0.03407074  0.74035538    -0.73700
O418        O  0.02623208  0.44918166  0.73816786    -0.73800
O419        O  0.47854973  0.45588721  0.76445307    -0.73700
O420        O  0.47970059  0.04307300  0.76553220    -0.73700
O421        O  0.46411239  0.00428676  0.73023966    -0.73700
O422        O  0.49320879  0.49461672  0.80078915    -0.73700
Ni423      Ni  0.02866071  0.99017036  0.74046681     1.25400
Ni424      Ni  0.47568978  0.49979097  0.76588145     1.25400
C425        C  0.02225290  0.48993519  0.79932276     0.88500
C426        C  0.98379751  0.00058996  0.70561833     0.88500
C427        C  0.00398891  0.05330938  0.75275689     0.88500
C428        C  0.00294002  0.43794876  0.75130885     0.88600
O429        O  0.28904230  0.03651194  0.97690091    -0.73700
O430        O  0.20788594  0.02353218  0.99637605    -0.73700
O431        O  0.24986935  0.02955303  0.52906743    -0.73700
O432        O  0.24741563  0.03002455  0.94315709    -0.73800
O433        O  0.25435273  0.47029748  0.96229508    -0.73700
O434        O  0.25773321  0.47421150  0.54802847    -0.73700
O435        O  0.21336504  0.47278398  0.51569795    -0.73700
O436        O  0.29785450  0.47416739  0.49378295    -0.73700
Ni437      Ni  0.24781347  0.03160147  0.98642542     1.25400
Ni438      Ni  0.25611073  0.47172643  0.50504218     1.25400
C439        C  0.30634792  0.49723462  0.98989127     0.88500
C440        C  0.19409550  0.49801601  0.51938186     0.88500
C441        C  0.25282065  0.49984640  0.56194665     0.88500
C442        C  0.24872735  0.49567174  0.94744266     0.88600
O443        O  0.04281440  0.24704823  0.97397308    -0.73700
O444        O  0.45494808  0.25087642  0.97614048    -0.73700
O445        O  0.99416344  0.29247108  0.97109274    -0.73700
O446        O  0.00453659  0.20506210  0.97951423    -0.73800
O447        O  0.49491298  0.21132858  0.52700797    -0.73700
O448        O  0.48625498  0.29775875  0.51944113    -0.73700
O449        O  0.44637037  0.25771059  0.52369942    -0.73700
O450        O  0.03473027  0.25134129  0.52227722    -0.73700
Ni451      Ni  0.99929094  0.24869080  0.97348173     1.25400
Ni452      Ni  0.49017382  0.25466605  0.52475792     1.25400
C453        C  0.05425225  0.24991251  0.49716978     0.88500
C454        C  0.43664904  0.25575414  0.49930710     0.88500
C455        C  0.49135853  0.31024148  0.49351816     0.88500
C456        C  0.50228373  0.19471977  0.50377193     0.88600
O457        O  0.05377166  0.23676641  0.74357924    -0.73700
O458        O  0.48122620  0.25121838  0.71255487    -0.73700
O459        O  0.01670430  0.28777705  0.72779999    -0.73700
O460        O  0.01773993  0.20044727  0.72870760    -0.73800
O461        O  0.49120413  0.20322911  0.77540916    -0.73700
O462        O  0.48966125  0.29050788  0.77430335    -0.73700
O463        O  0.45390980  0.25420159  0.75917301    -0.73700
O464        O  0.02674810  0.24037183  0.79030107    -0.73700
Ni465      Ni  0.01838623  0.24395187  0.72648741     1.25400
Ni466      Ni  0.48936186  0.24705284  0.77647926     1.25400
C467        C  0.05226570  0.23698166  0.77180538     0.88500
C468        C  0.45564372  0.25495758  0.73083401     0.88500
C469        C  0.50309871  0.30374131  0.75112893     0.88500
C470        C  0.50449292  0.18705160  0.75227128     0.88600
O471        O  0.32820875  0.23933261  0.69704163    -0.80100
O472        O  0.18856779  0.24252715  0.75394853    -0.64800
O473        O  0.26666681  0.25935064  0.72115584    -1.11400
C474        C  0.27750372  0.26019466  0.81886848     1.06800
O475        O  0.17929936  0.26356438  0.79882238    -0.78000
O476        O  0.21725129  0.30570875  0.77990095    -0.65600
Ni477      Ni  0.28998747  0.23406760  0.68879259     1.34900
C478        C  0.24164225  0.31556093  0.76870911     0.85500
O479        O  0.21497683  0.25899763  0.70035984    -0.78600
O480        O  0.25476810  0.22776870  0.67483445    -0.88800
C481        C  0.17122028  0.25021836  0.77875872     0.85100
O482        O  0.28970143  0.19781884  0.71310269    -0.67000
O483        O  0.25265000  0.27882262  0.81884315    -0.86300
C484        C  0.26530068  0.18816546  0.72452235     0.85900
C485        C  0.22914655  0.24561843  0.67654065     1.07500
H486        H  0.24305419  0.22334940  0.78098536     0.39300
O487        O  0.24099122  0.24449985  0.77428649    -1.09000
O488        O  0.26778119  0.29771216  0.76373006    -0.65600
Ni489      Ni  0.28010863  0.25345264  0.75804663     1.26300
O490        O  0.23942596  0.20637271  0.73087445    -0.65900
O491        O  0.29230281  0.24603183  0.79558901    -0.78200
C492        C  0.33645120  0.25290187  0.71681441     0.85300
O493        O  0.31896283  0.26174748  0.74127495    -0.65300
Ni494      Ni  0.21746692  0.27063369  0.80601652     1.27400
Ni495      Ni  0.22752613  0.25066946  0.73740525     1.26100
H496        H  0.26446086  0.28041136  0.71455469     0.39800
O497        O  0.23840343  0.22932402  0.54133772    -0.73700
O498        O  0.26259152  0.22517071  0.95791196    -0.73700
O499        O  0.29320172  0.22938830  0.50211323    -0.73700
O500        O  0.20838489  0.22648642  0.49607292    -0.73800
O501        O  0.19626537  0.27590362  0.99454469    -0.73700
O502        O  0.28094331  0.27844979  0.00202243    -0.73700
O503        O  0.25188292  0.27594385  0.95586762    -0.73700
O504        O  0.22670820  0.28000694  0.53931765    -0.73700
Ni505      Ni  0.25126708  0.22615359  0.49918758     1.25400
Ni506      Ni  0.23820073  0.27893984  0.99813636     1.25400
C507        C  0.22771999  0.25492818  0.55445307     0.88500
C508        C  0.26296511  0.25023183  0.94294968     0.88500
C509        C  0.30076107  0.25340332  0.00307955     0.88500
C510        C  0.18848702  0.25134439  0.49437713     0.88600
O511        O  0.22323406  0.46590205  0.76175027    -0.73700
O512        O  0.23413917  0.05282483  0.73849956    -0.73700
O513        O  0.22914850  0.01194152  0.69721512    -0.73700
O514        O  0.22709121  0.50724005  0.80230760    -0.73800
O515        O  0.27725152  0.49290499  0.79340032    -0.73700
O516        O  0.27888332  0.99468184  0.68882533    -0.73700
O517        O  0.28448523  0.03627435  0.72902741    -0.73700
O518        O  0.27385760  0.45151326  0.75224782    -0.73700
Ni519      Ni  0.22592744  0.50845239  0.75923093     1.25400
Ni520      Ni  0.27970774  0.99405923  0.73199844     1.25400
C521        C  0.24717802  0.44487025  0.75801525     0.88500
C522        C  0.26126563  0.05823730  0.73312235     0.88500
C523        C  0.25440654  0.00348787  0.67809632     0.88500
C524        C  0.25186648  0.49943137  0.81271995     0.88600
C525        C  0.26532215  0.09062844  0.73187824    -0.04600
C526        C  0.27972177  0.10340552  0.70513863    -0.01700
C527        C  0.27975229  0.13520801  0.70287357     0.03300
C528        C  0.26655720  0.15436958  0.72781915    -0.04600
C529        C  0.25345810  0.14111536  0.75504022    -0.01700
C530        C  0.25252683  0.10950815  0.75689844     0.03300
C531        C  0.29329580  0.08402357  0.67948295     0.37900
C532        C  0.24092771  0.15958331  0.78143590     0.37900
C533        C  0.23855192  0.09625705  0.78480032     0.36400
C534        C  0.29144406  0.14845546  0.67413471     0.36400
N535        N  0.22739368  0.08570861  0.80702745    -0.38500
N536        N  0.30045452  0.15903456  0.65112767    -0.38500
N537        N  0.23052911  0.17324795  0.80313861    -0.37900
N538        N  0.30420638  0.06847221  0.65910897    -0.37900
C539        C  0.24034314  0.34921317  0.76469724    -0.04600
C540        C  0.22733856  0.36873076  0.78936786    -0.01700
C541        C  0.22951544  0.40002086  0.78719808     0.03300
C542        C  0.24407224  0.41225514  0.76019055    -0.04600
C543        C  0.25633313  0.39311493  0.73534620    -0.01700
C544        C  0.25454636  0.36174174  0.73753361     0.03300
C545        C  0.21304059  0.35636570  0.81759727     0.37900
C546        C  0.27078113  0.40584693  0.70736758     0.37900
C547        C  0.26709675  0.34286945  0.71142202     0.36400
C548        C  0.21862797  0.41913924  0.81340149     0.36400
N549        N  0.27749103  0.32901899  0.68982877    -0.38500
N550        N  0.21027019  0.43422455  0.83442201    -0.38500
N551        N  0.28231840  0.41608530  0.68513923    -0.37900
N552        N  0.20159889  0.34646799  0.84005601    -0.37900
C553        C  0.21776995  0.25511174  0.58767978    -0.04600
C554        C  0.21392861  0.22731129  0.60365550    -0.01700
C555        C  0.21345086  0.22527214  0.63446148     0.03300
C556        C  0.21650764  0.25074732  0.64941902    -0.04600
C557        C  0.21489299  0.27963769  0.63504966    -0.01700
C558        C  0.21510071  0.28203353  0.60417480     0.03300
C559        C  0.21202038  0.20004662  0.58874537     0.37900
C560        C  0.21607043  0.30632300  0.65138041     0.37900
C561        C  0.21427642  0.31199177  0.58973159     0.36400
C562        C  0.21187137  0.19638613  0.65063070     0.36400
N563        N  0.21344249  0.33604534  0.57854899    -0.38500
N564        N  0.21068952  0.17344935  0.66362834    -0.38500
N565        N  0.21705392  0.32758585  0.66434887    -0.37900
N566        N  0.21097568  0.17782786  0.57735012    -0.37900
C567        C  0.28735174  0.25412882  0.84752013    -0.04600
C568        C  0.28543014  0.22547475  0.86161083    -0.01700
C569        C  0.27917272  0.22326688  0.89303744     0.03300
C570        C  0.27616714  0.24974757  0.91024451    -0.04600
C571        C  0.28485012  0.27650830  0.89544742    -0.01700
C572        C  0.28940417  0.27895808  0.86413246     0.03300
C573        C  0.28707761  0.19891858  0.84384486     0.37900
C574        C  0.28893839  0.30169920  0.91209680     0.37900
C575        C  0.29453692  0.30753452  0.84892609     0.36400
C576        C  0.27416383  0.19413183  0.90702323     0.36400
N577        N  0.29854508  0.33029786  0.83672282    -0.38500
N578        N  0.27022600  0.17079029  0.91794737    -0.38500
N579        N  0.29236441  0.32175682  0.92530121    -0.37900
N580        N  0.28862609  0.17767579  0.82971781    -0.37900
C581        C  0.14004870  0.24346181  0.78393464    -0.04600
C582        C  0.13546108  0.21601560  0.77280432    -0.01700
C583        C  0.10587581  0.21228203  0.77176674     0.03300
C584        C  0.08078482  0.23551098  0.78236653    -0.04600
C585        C  0.08483567  0.26083050  0.79728366    -0.01700
C586        C  0.11451997  0.26519576  0.79756227     0.03300
C587        C  0.16108995  0.19190882  0.76132478     0.37900
C588        C  0.05862446  0.28366504  0.81020153     0.37900
C589        C  0.11852245  0.29343108  0.80929826     0.36400
C590        C  0.10129303  0.18486381  0.75895667     0.36400
N591        N  0.12158931  0.31607736  0.81849740    -0.38500
N592        N  0.09796664  0.16282374  0.74883080    -0.38500
N593        N  0.03771563  0.30175572  0.82066046    -0.37900
N594        N  0.18123220  0.17258946  0.75182608    -0.37900
C595        C  0.42740659  0.25899046  0.71936366    -0.04600
C596        C  0.40378138  0.28400451  0.72879972    -0.01700
C597        C  0.37428789  0.28380927  0.72442972     0.03300
C598        C  0.36821932  0.25773256  0.71211128    -0.04600
C599        C  0.39281929  0.23481051  0.69885957    -0.01700
C600        C  0.42259074  0.23581481  0.70209184     0.03300
C601        C  0.40973454  0.30955500  0.74360277     0.37900
C602        C  0.38759433  0.20894006  0.68398009     0.37900
C603        C  0.44780989  0.21176470  0.68957472     0.36400
C604        C  0.35016695  0.31018045  0.73315356     0.36400
N605        N  0.46792302  0.19270834  0.67940280    -0.38500
N606        N  0.33105052  0.33127614  0.74006746    -0.38500
N607        N  0.38355093  0.18825858  0.67210683    -0.37900
N608        N  0.41444393  0.32993958  0.75539812    -0.37900
C609        C  0.33509085  0.25387976  0.00290222    -0.04600
C610        C  0.34597406  0.27577876  0.51951122    -0.01700
C611        C  0.37783922  0.27589599  0.51883897     0.03300
C612        C  0.40043699  0.25426388  0.00160962    -0.04600
C613        C  0.39096995  0.23431563  0.98351244    -0.01700
C614        C  0.35923299  0.23408071  0.98420364     0.03300
C615        C  0.32270808  0.29582782  0.53980896     0.37900
C616        C  0.41404102  0.21301503  0.96432978     0.37900
C617        C  0.35145986  0.21361786  0.96466788     0.36400
C618        C  0.38569032  0.29740643  0.53719353     0.36400
N619        N  0.34517926  0.19732605  0.94907197    -0.38500
N620        N  0.39195862  0.31472800  0.55172829    -0.38500
N621        N  0.43231291  0.19592007  0.94892040    -0.37900
N622        N  0.30413684  0.31178418  0.55611352    -0.37900
C623        C  0.08871467  0.24991021  0.49612218    -0.04600
C624        C  0.10332769  0.27353148  0.48111302    -0.01700
C625        C  0.13508862  0.27395165  0.48034321     0.03300
C626        C  0.15413776  0.25042540  0.49423993    -0.04600
C627        C  0.13944510  0.22636240  0.50862277    -0.01700
C628        C  0.10758212  0.22626659  0.50966368     0.03300
C629        C  0.08531311  0.29813440  0.46665539     0.37900
C630        C  0.15685474  0.20130351  0.52300684     0.37900
C631        C  0.09353408  0.19849123  0.02353511     0.36400
C632        C  0.14821509  0.29865826  0.46425412     0.36400
N633        N  0.08355429  0.17743552  0.03385657    -0.38500
N634        N  0.15855757  0.31845754  0.45132360    -0.38500
N635        N  0.16926793  0.17976517  0.03540775    -0.37900
N636        N  0.07090921  0.31775559  0.45509404    -0.37900
C637        C  0.25098233  0.49788026  0.84754650    -0.04600
C638        C  0.22414204  0.51013311  0.86900024    -0.01700
C639        C  0.22350781  0.50918940  0.90077080     0.03300
C640        C  0.24932305  0.49575342  0.91309061    -0.04600
C641        C  0.27578157  0.48259025  0.89210620    -0.01700
C642        C  0.27667091  0.48357867  0.86023848     0.03300
C643        C  0.19633104  0.52367240  0.85884551     0.37900
C644        C  0.30275415  0.46823850  0.90335990     0.37900
C645        C  0.30432407  0.46875834  0.84071039     0.36400
C646        C  0.19529253  0.52101461  0.92114144     0.36400
N647        N  0.32644817  0.45672894  0.82526072    -0.38500
N648        N  0.17251982  0.53021246  0.93719745    -0.38500
N649        N  0.32758544  0.02310273  0.88643900    -0.37900
N650        N  0.17389168  0.53434163  0.85105499    -0.37900
C651        C  0.25762418  0.00391399  0.57746474    -0.04600
C652        C  0.22981197  0.01205451  0.59855896    -0.01700
C653        C  0.22860778  0.01138775  0.63047865     0.03300
C654        C  0.25549964  0.00378433  0.64314923    -0.04600
C655        C  0.28097895  0.49454913  0.63884578    -0.01700
C656        C  0.28070236  0.49390520  0.60725652     0.03300
C657        C  0.20179637  0.02054654  0.58728537     0.37900
C658        C  0.31025751  0.48878437  0.64783511     0.37900
C659        C  0.30929148  0.48768487  0.58583917     0.36400
C660        C  0.19898468  0.01843927  0.65013189     0.36400
N661        N  0.33218064  0.48303015  0.56877660    -0.38500
N662        N  0.17518799  0.02398491  0.66565957    -0.38500
N663        N  0.33380938  0.48435515  0.65470343    -0.37900
N664        N  0.17948132  0.02736302  0.57818818    -0.36100
C665        C  0.50317144  0.33817948  0.75120100    -0.04600
C666        C  0.98460115  0.35755939  0.77436891    -0.01700
C667        C  0.98556470  0.38926520  0.77498701     0.03300
C668        C  0.00377030  0.40353805  0.75144427    -0.04600
C669        C  0.52230017  0.38439448  0.72827754    -0.01700
C670        C  0.52244662  0.35236780  0.72826837     0.03300
C671        C  0.96365278  0.34524201  0.79814858     0.37900
C672        C  0.54143729  0.39770385  0.70360089     0.37900
C673        C  0.54316752  0.33427502  0.70438992     0.36400
C674        C  0.96867060  0.40680701  0.80103641     0.36400
N675        N  0.55981363  0.32005233  0.68527512    -0.38500
N676        N  0.95543528  0.42065631  0.82194970    -0.38500
N677        N  0.55670921  0.40813514  0.68381463    -0.37900
N678        N  0.94676224  0.33577165  0.81719686    -0.37900
C679        C  0.00436843  0.08760831  0.75268580    -0.04600
C680        C  0.02584336  0.10099325  0.73156254    -0.01700
C681        C  0.02645375  0.13284044  0.73194922     0.03300
C682        C  0.50449144  0.15265794  0.75255259    -0.04600
C683        C  0.48231416  0.13944959  0.77300578    -0.01700
C684        C  0.48270643  0.10735263  0.77366251     0.03300
C685        C  0.04720214  0.08236656  0.70848267     0.37900
C686        C  0.45807510  0.15878583  0.79319645     0.37900
C687        C  0.46095625  0.09514271  0.79673710     0.36400
C688        C  0.05038593  0.14452770  0.71117368     0.36400
N689        N  0.44359873  0.08556804  0.81523109    -0.38500
N690        N  0.06960082  0.15361988  0.69456285    -0.38500
N691        N  0.43857496  0.17397458  0.80931374    -0.37900
N692        N  0.06426527  0.06777054  0.68989934    -0.37900
C693        C  0.00925862  0.39970432  0.98241691    -0.04600
C694        C  0.01732399  0.38325268  0.50679007    -0.01700
C695        C  0.01105079  0.35348450  0.51055254     0.03300
C696        C  0.99424147  0.34068507  0.99179330    -0.04600
C697        C  0.48341080  0.36050974  0.96941037    -0.01700
C698        C  0.49089794  0.38992015  0.96470502     0.03300
C699        C  0.03252069  0.39446419  0.52777500     0.37900
C700        C  0.46423016  0.35082024  0.95149018     0.37900
C701        C  0.48055694  0.40959200  0.94096992     0.36400
C702        C  0.02284650  0.33368570  0.53354036     0.36400
N703        N  0.47232805  0.42525910  0.92203405    -0.38500
N704        N  0.03229570  0.31808788  0.55191850    -0.38500
N705        N  0.44891493  0.34313123  0.93718694    -0.37900
N706        N  0.04447090  0.40339216  0.54460899    -0.37900
C707        C  0.50489652  0.16077872  0.50759461    -0.04600
C708        C  0.49894941  0.14062027  0.98643554    -0.01700
C709        C  0.49440827  0.11031620  0.99254416     0.03300
C710        C  0.49898546  0.09902105  0.51868057    -0.04600
C711        C  0.00538944  0.11554209  0.54107997    -0.01700
C712        C  0.00867203  0.14623938  0.53560177     0.03300
C713        C  0.49996620  0.15253756  0.95611821     0.37900
C714        C  0.00740594  0.10126745  0.57015002     0.37900
C715        C  0.01604618  0.16245855  0.55900683     0.36400
C716        C  0.48756005  0.09292716  0.96964028     0.36400
N717        N  0.02189305  0.17516506  0.57783849    -0.38500
N718        N  0.48186205  0.07918450  0.95146991    -0.38500
N719        N  0.00898039  0.08991685  0.59332210    -0.37900
N720        N  0.50132648  0.16153315  0.93171271    -0.37900
C721        C  0.40285849  0.02616269  0.96957018    -0.04600
C722        C  0.39167045  0.47895613  0.98546812    -0.01700
C723        C  0.36145949  0.47473058  0.98937499     0.03300
C724        C  0.34243505  0.01934417  0.97082399    -0.04600
C725        C  0.34951807  0.03807456  0.49315270    -0.01700
C726        C  0.37945833  0.04161931  0.49301972     0.03300
C727        C  0.41400856  0.45571545  0.99673828     0.37900
C728        C  0.32496680  0.05139182  0.51719417     0.37900
C729        C  0.38428091  0.06072188  0.51572561     0.36400
C730        C  0.35359616  0.44672241  0.00397199     0.36400
N731        N  0.38779879  0.07618570  0.53376232    -0.38500
N732        N  0.34759450  0.42431974  0.01559108    -0.38500
N733        N  0.30562993  0.06188345  0.53652420    -0.37900
N734        N  0.43146476  0.43707809  0.00596004    -0.37900
C735        C  0.09968476  0.49219294  0.53319630    -0.04600
C736        C  0.12014849  0.46533814  0.04543062    -0.01700
C737        C  0.15058355  0.46851599  0.04307213     0.03300
C738        C  0.16099549  0.49752660  0.52736487    -0.04600
C739        C  0.14895031  0.01384094  0.49534848    -0.01700
C740        C  0.11817335  0.01146283  0.50419737     0.03300
C741        C  0.10944082  0.43883805  0.06060238     0.37900
C742        C  0.15692182  0.03809964  0.47432861     0.37900
C743        C  0.09528201  0.03365832  0.49256513     0.36400
C744        C  0.17091418  0.44541056  0.05685419     0.36400
N745        N  0.07766247  0.05178088  0.48297469    -0.38500
N746        N  0.18697391  0.42694719  0.06796454    -0.38500
N747        N  0.16319124  0.05749765  0.45769806    -0.37900
N748        N  0.10083986  0.41782243  0.07287578    -0.37900
C749        C  0.53331407  0.48788591  0.82736555    -0.04600
C750        C  0.53910737  0.01053070  0.84336636    -0.01700
C751        C  0.54284252  0.00837539  0.87317121     0.03300
C752        C  0.54083338  0.48600635  0.88689068    -0.04600
C753        C  0.04403905  0.45834117  0.87180584    -0.01700
C754        C  0.04010057  0.45935303  0.84195727     0.03300
C755        C  0.54049650  0.03897239  0.82648869     0.37900
C756        C  0.04925668  0.42916272  0.88754447     0.37900
C757        C  0.04123543  0.43123527  0.82681210     0.36400
C758        C  0.54691394  0.03491554  0.88782797     0.36400
N759        N  0.04221592  0.40874048  0.81480332    -0.38500
N760        N  0.55035430  0.05594930  0.89959362    -0.38500
N761        N  0.05351978  0.40593366  0.90014821    -0.37900
N762        N  0.54208304  0.06149503  0.81285373    -0.37900
C763        C  0.96703324  0.00942079  0.61741639    -0.04600
C764        C  0.95612460  0.03460094  0.63662187    -0.01700
C765        C  0.95974684  0.03135467  0.66655901     0.03300
C766        C  0.97360832  0.00277638  0.67708875    -0.04600
C767        C  0.46880845  0.47931074  0.66081327    -0.01700
C768        C  0.46521026  0.48152708  0.63093379     0.03300
C769        C  0.94307163  0.06413263  0.62511274     0.37900
C770        C  0.47335632  0.44960013  0.67564582     0.37900
C771        C  0.46900045  0.45389996  0.61402710     0.36400
C772        C  0.95173621  0.05787009  0.68568723     0.36400
N773        N  0.47232056  0.43184912  0.60050152    -0.38500
N774        N  0.94558311  0.07901136  0.70094441    -0.38500
N775        N  0.47638316  0.42589756  0.68754225    -0.37900
N776        N  0.93253652  0.08764662  0.61591923    -0.37900
O777        O  0.07287236  0.95916257  0.51665135    -0.80100
O778        O  0.45623537  0.99972706  0.46752814    -0.64800
O779        O  0.02674790  0.50168919  0.48675721    -1.11400
C780        C  0.96397955  0.50882658  0.08470386     1.06800
O781        O  0.43013416  0.53499557  0.99136106    -0.78000
O782        O  0.45507814  0.56220874  0.02723829    -0.65600
Ni783      Ni  0.06654887  0.96261892  0.47654883     1.34900
C784        C  0.48223289  0.56547690  0.02606836     0.85500
O785        O  0.51381424  0.99201823  0.43552316    -0.78600
O786        O  0.06142657  0.96497180  0.43568821    -0.88800
C787        C  0.42911380  0.51509895  0.47439818     0.85100
O788        O  0.04374841  0.93086896  0.48561311    -0.67000
O789        O  0.44146919  0.52018460  0.07235815    -0.86300
C790        C  0.01604345  0.93010811  0.48622607     0.85900
C791        C  0.54006621  0.97808460  0.42248101     1.07500
H792        H  0.47367842  0.97827943  0.02667165     0.39300
O793        O  0.47865045  0.99779420  0.01928270    -1.09000
O794        O  0.00410563  0.54339789  0.02776801    -0.65600
Ni795      Ni  0.00942026  0.49971139  0.02929639     1.26300
O796        O  0.49657372  0.95363346  0.48142461    -0.65900
O797        O  0.99113379  0.50004036  0.07044380    -0.78200
C798        C  0.07720887  0.98066731  0.02700848     0.85300
O799        O  0.04671871  0.50168042  0.03991080    -0.65300
Ni800      Ni  0.43686631  0.52691854  0.03124102     1.27400
Ni801      Ni  0.49578978  0.99674907  0.47674041     1.26100
H802        H  0.03223428  0.52111793  0.47978685     0.39800
O803        O  0.04599791  0.98236931  0.27786985    -0.73700
O804        O  0.00820972  0.49353969  0.20368643    -0.73700
O805        O  0.02145773  0.53429527  0.23924149    -0.73700
O806        O  0.02970100  0.94312119  0.24355928    -0.73800
O807        O  0.48196791  0.95315714  0.26832523    -0.73700
O808        O  0.47410946  0.54058731  0.26538431    -0.73700
O809        O  0.46052567  0.50041472  0.22986811    -0.73700
O810        O  0.49801458  0.99175172  0.30347580    -0.73700
Ni811      Ni  0.02542068  0.49018780  0.23875081     1.25400
Ni812      Ni  0.48144944  0.99666798  0.26798941     1.25400
C813        C  0.02670562  0.98542901  0.30254054     0.88500
C814        C  0.97938671  0.49800474  0.20496966     0.88500
C815        C  0.99721403  0.55218561  0.25245710     0.88500
C816        C  0.00532267  0.93356537  0.25657586     0.88600
O817        O  0.28734391  0.52507721  0.49305728    -0.73700
O818        O  0.20301346  0.52362869  0.51540284    -0.73700
O819        O  0.24655507  0.52214650  0.04743904    -0.73700
O820        O  0.24315601  0.52363669  0.46112788    -0.73800
O821        O  0.26569500  0.98008540  0.44120745    -0.73700
O822        O  0.26554696  0.97923802  0.02856862    -0.73700
O823        O  0.22409204  0.97314729  0.99432130    -0.73700
O824        O  0.30637462  0.98608580  0.97645426    -0.73700
Ni825      Ni  0.24478642  0.52609737  0.50405738     1.25400
Ni826      Ni  0.26586194  0.97777918  0.98518411     1.25400
C827        C  0.31255345  0.01419611  0.47385417     0.88500
C828        C  0.20231753  0.99644795  0.99894711     0.88500
C829        C  0.25696574  0.00426162  0.04369759     0.88500
C830        C  0.25684135  0.00529521  0.42730152     0.88600
O831        O  0.03900024  0.74951822  0.48200207    -0.73700
O832        O  0.45135902  0.75329881  0.48316606    -0.73700
O833        O  0.99016411  0.79468761  0.48021455    -0.73700
O834        O  0.00070851  0.70750749  0.48526030    -0.73800
O835        O  0.49462934  0.70671505  0.03235911    -0.73700
O836        O  0.48597791  0.79343217  0.02528773    -0.73700
O837        O  0.44645346  0.75279323  0.02867577    -0.73700
O838        O  0.03462273  0.74720313  0.02809822    -0.73700
Ni839      Ni  0.99557925  0.75109614  0.48101371     1.25400
Ni840      Ni  0.49007079  0.75015716  0.03033184     1.25400
C841        C  0.05433013  0.74601133  0.00310315     0.88500
C842        C  0.43693439  0.75116604  0.00409320     0.88500
C843        C  0.49128829  0.80607583  0.99943122     0.88500
C844        C  0.50079096  0.69056940  0.00885520     0.88600
O845        O  0.04353802  0.73569798  0.24702343    -0.73700
O846        O  0.47128582  0.75071216  0.21538157    -0.73700
O847        O  0.00739897  0.78681394  0.23126659    -0.73700
O848        O  0.00761568  0.69988773  0.23162741    -0.73800
O849        O  0.48081182  0.70252922  0.27815692    -0.73700
O850        O  0.48002209  0.78970986  0.27761408    -0.73700
O851        O  0.44380828  0.75376585  0.26197394    -0.73700
O852        O  0.01618364  0.73905085  0.29367317    -0.73700
Ni853      Ni  0.00842705  0.74320256  0.22964850     1.25400
Ni854      Ni  0.47908776  0.74635422  0.27947148     1.25400
C855        C  0.04171397  0.73592350  0.27528565     0.88500
C856        C  0.44568752  0.75422696  0.23364032     0.88500
C857        C  0.49454642  0.80255055  0.25478794     0.88500
C858        C  0.49457501  0.68643520  0.25508638     0.88600
O859        O  0.31782291  0.73997215  0.19982336    -0.80100
O860        O  0.17884694  0.73956521  0.25679256    -0.64800
O861        O  0.25587593  0.75854153  0.22216649    -1.11400
C862        C  0.26183144  0.77174759  0.31971586     1.06800
O863        O  0.16675238  0.77011553  0.29602168    -0.78000
O864        O  0.20542843  0.81025198  0.27247178    -0.65600
Ni865      Ni  0.28075311  0.73098202  0.19236018     1.34900
C866        C  0.23003403  0.81967312  0.26122141     0.85500
O867        O  0.20536900  0.75101302  0.20175139    -0.78600
O868        O  0.24686680  0.71983854  0.17948299    -0.88800
C869        C  0.16011419  0.75165815  0.27930019     0.85100
O870        O  0.28197350  0.69766249  0.22030793    -0.67000
O871        O  0.23787719  0.79029883  0.31620904    -0.86300
C872        C  0.25837970  0.68713416  0.23265602     0.85900
C873        C  0.22050787  0.73563335  0.17948010     1.07500
H874        H  0.23083415  0.72920761  0.28611580     0.39300
O875        O  0.22897732  0.74908157  0.27645175    -1.09000
O876        O  0.25606583  0.80213773  0.26014085    -0.65600
Ni877      Ni  0.26815392  0.75752121  0.25979203     1.26300
O878        O  0.23172801  0.70418814  0.23756941    -0.65900
O879        O  0.27824049  0.75544484  0.29834649    -0.78200
C880        C  0.32570122  0.75397449  0.21949353     0.85300
O881        O  0.30764234  0.76436362  0.24312829    -0.65300
Ni882      Ni  0.20386515  0.77942107  0.30344829     1.27400
Ni883      Ni  0.21714579  0.74878634  0.23919254     1.26100
H884        H  0.25288857  0.77890346  0.21354388     0.39800
O885        O  0.24074395  0.72065520  0.04122965    -0.73700
O886        O  0.25700091  0.73232910  0.45863748    -0.73700
O887        O  0.29443466  0.72434219  0.00112537    -0.73700
O888        O  0.20862843  0.72294608  0.99745595    -0.73800
O889        O  0.19256901  0.77897583  0.50219038    -0.73700
O890        O  0.27844304  0.77785427  0.50756388    -0.73700
O891        O  0.24638969  0.78276662  0.46243671    -0.73700
O892        O  0.22894802  0.77118625  0.04416226    -0.73700
Ni893      Ni  0.25200025  0.72186827  0.99903240     1.25400
Ni894      Ni  0.23514415  0.78016267  0.50497040     1.25400
C895        C  0.22959676  0.74472297  0.05667852     0.88500
C896        C  0.25561359  0.75890703  0.44626504     0.88500
C897        C  0.29807421  0.75241914  0.50662154     0.88500
C898        C  0.18847896  0.74803581  0.99870036     0.88600
O899        O  0.21872207  0.96995353  0.24327209    -0.73700
O900        O  0.23260198  0.54974464  0.25621033    -0.73700
O901        O  0.22871390  0.50798663  0.21521655    -0.73700
O902        O  0.22572322  0.00946193  0.28524170    -0.73800
O903        O  0.27578563  0.99285201  0.27604970    -0.73700
O904        O  0.27883706  0.49349249  0.20584594    -0.73700
O905        O  0.28314942  0.53521452  0.24675528    -0.73700
O906        O  0.26859536  0.95167917  0.23561834    -0.73700
Ni907      Ni  0.22473202  0.01140125  0.24171291     1.25400
Ni908      Ni  0.28030549  0.49254617  0.24907357     1.25400
C909        C  0.24104863  0.94718346  0.23996185     0.88500
C910        C  0.25931074  0.55643355  0.25055265     0.88500
C911        C  0.25377417  0.50064221  0.19573147     0.88500
C912        C  0.25078460  0.00146445  0.29529256     0.88600
C913        C  0.26241663  0.58932676  0.24778014    -0.04600
C914        C  0.28054354  0.60026128  0.22206051    -0.01700
C915        C  0.28007704  0.63205655  0.21762431     0.03300
C916        C  0.26166838  0.65338275  0.23909555    -0.04600
C917        C  0.24549226  0.64207871  0.26587395    -0.01700
C918        C  0.24602449  0.61028398  0.27019564     0.03300
C919        C  0.29891558  0.57892631  0.19949868     0.37900
C920        C  0.22865943  0.66288371  0.28948938     0.37900
C921        C  0.23070896  0.59902588  0.29843622     0.36400
C922        C  0.29748675  0.64267198  0.19007558     0.36400
N923        N  0.21877413  0.59034896  0.32125293    -0.38500
N924        N  0.31143591  0.65102728  0.16810675    -0.38500
N925        N  0.21494449  0.67882552  0.30876312    -0.37900
N926        N  0.31373156  0.56196826  0.18154971    -0.37900
C927        C  0.22899056  0.85262037  0.25169758    -0.04600
C928        C  0.20728832  0.87621678  0.26794312    -0.01700
C929        C  0.20956878  0.90727230  0.26210859     0.03300
C930        C  0.23493425  0.91514804  0.24172265    -0.04600
C931        C  0.25463346  0.89196611  0.22329168    -0.01700
C932        C  0.25119232  0.86103120  0.22775457     0.03300
C933        C  0.18319961  0.86887552  0.29175015     0.37900
C934        C  0.27752312  0.90008028  0.19864447     0.37900
C935        C  0.26984786  0.83820661  0.20681521     0.36400
C936        C  0.18538602  0.93090242  0.27705801     0.36400
N937        N  0.28485135  0.82057039  0.18959492    -0.38500
N938        N  0.16549106  0.94957560  0.28834794    -0.38500
N939        N  0.29561196  0.90655755  0.17884669    -0.37900
N940        N  0.16397450  0.86317666  0.31079178    -0.37900
C941        C  0.21755572  0.74168241  0.08941356    -0.04600
C942        C  0.21980739  0.71227814  0.10372602    -0.01700
C943        C  0.21523669  0.71003750  0.13497985     0.03300
C944        C  0.20869017  0.73673392  0.15186368    -0.04600
C945        C  0.19940719  0.76533526  0.13852337    -0.01700
C946        C  0.20402354  0.76799426  0.10717689     0.03300
C947        C  0.22777283  0.68406094  0.08699466     0.37900
C948        C  0.18695870  0.79229344  0.15680748     0.37900
C949        C  0.19539171  0.79796669  0.09380893     0.36400
C950        C  0.21880406  0.68027310  0.14997116     0.36400
N951        N  0.18842779  0.82194327  0.08336255    -0.38500
N952        N  0.22154286  0.65660990  0.16199365    -0.38500
N953        N  0.17669564  0.81377470  0.17131236    -0.37900
N954        N  0.23413364  0.66144277  0.07384665    -0.37900
C955        C  0.26877418  0.76807102  0.34994120    -0.04600
C956        C  0.27232341  0.73872141  0.36346410    -0.01700
C957        C  0.27083917  0.73552879  0.39451156     0.03300
C958        C  0.26376042  0.76195851  0.41278433    -0.04600
C959        C  0.26278775  0.79133078  0.39844674    -0.01700
C960        C  0.26571935  0.79413253  0.36717304     0.03300
C961        C  0.27449554  0.71176485  0.34597702     0.37900
C962        C  0.25784902  0.81917820  0.41532654     0.37900
C963        C  0.26453141  0.82411510  0.35262098     0.36400
C964        C  0.27567438  0.70468005  0.40710698     0.36400
N965        N  0.26356790  0.84791607  0.34090016    -0.38500
N966        N  0.27961737  0.67998574  0.41685860    -0.38500
N967        N  0.25371414  0.84161837  0.42846264    -0.37900
N968        N  0.27589110  0.69029225  0.33222175    -0.37900
C969        C  0.12898806  0.74448196  0.28562707    -0.04600
C970        C  0.12435859  0.71587309  0.27696471    -0.01700
C971        C  0.09472459  0.71149267  0.27705322     0.03300
C972        C  0.06980351  0.73530802  0.28601738    -0.04600
C973        C  0.07377381  0.76196676  0.29869508    -0.01700
C974        C  0.10336971  0.76671976  0.29843406     0.03300
C975        C  0.14982100  0.69105374  0.26707219     0.37900
C976        C  0.04758420  0.78577833  0.30954938     0.37900
C977        C  0.10696034  0.79554272  0.30933574     0.36400
C978        C  0.08974374  0.68291664  0.26684746     0.36400
N979        N  0.10956479  0.81856122  0.31814271    -0.38500
N980        N  0.08567927  0.66014060  0.25884947    -0.38500
N981        N  0.02683550  0.80481262  0.31828094    -0.37900
N982        N  0.16981252  0.67109605  0.25886282    -0.37900
C983        C  0.41756706  0.75731743  0.22224511    -0.04600
C984        C  0.39509499  0.78389321  0.22843627    -0.01700
C985        C  0.36517137  0.78377108  0.22535423     0.03300
C986        C  0.35789154  0.75696656  0.21570633    -0.04600
C987        C  0.38145889  0.73156147  0.20609402    -0.01700
C988        C  0.41135152  0.73183067  0.20939156     0.03300
C989        C  0.40274148  0.81122498  0.23840138     0.37900
C990        C  0.37477756  0.70398089  0.19546376     0.37900
C991        C  0.43515211  0.70495309  0.20174954     0.36400
C992        C  0.34185520  0.81089518  0.23338870     0.36400
N993        N  0.45404517  0.68350128  0.19562396    -0.38500
N994        N  0.32362526  0.83265926  0.24028959    -0.38500
N995        N  0.36952583  0.68194739  0.18704640    -0.37900
N996        N  0.40868392  0.83327307  0.24596910    -0.37900
C997        C  0.33227963  0.75239425  0.50738892    -0.04600
C998        C  0.34667612  0.75859507  0.02938272    -0.01700
C999        C  0.37832846  0.75850409  0.02981158     0.03300
C1000       C  0.39719939  0.75324362  0.50801277    -0.04600
C1001       C  0.38141381  0.77033446  0.48665296    -0.01700
C1002       C  0.34969255  0.77051444  0.48685567     0.03300
C1003       C  0.32354400  0.76652155  0.05609770     0.37900
C1004       C  0.39788317  0.78754829  0.46344347     0.37900
C1005       C  0.33514869  0.78870114  0.46464703     0.36400
C1006       C  0.38585700  0.76587844  0.05750109     0.36400
N1007       N  0.32347164  0.80314976  0.44691386    -0.38500
N1008       N  0.39163362  0.77158848  0.07981465    -0.38500
N1009       N  0.41065011  0.80090421  0.44416539    -0.37900
N1010       N  0.30497694  0.77284991  0.07737102    -0.37900
C1011       C  0.08868100  0.74656463  0.00223126    -0.04600
C1012       C  0.10365453  0.76906047  0.98526956    -0.01700
C1013       C  0.13545210  0.76954210  0.98411317     0.03300
C1014       C  0.15398294  0.74749034  0.99981271    -0.04600
C1015       C  0.13872879  0.72542909  0.01733812    -0.01700
C1016       C  0.10703331  0.72476260  0.01816453     0.03300
C1017       C  0.08598754  0.79263925  0.96941296     0.37900
C1018       C  0.15512656  0.70412440  0.03619702     0.37900
C1019       C  0.08351430  0.72315738  0.55300979     0.36400
C1020       C  0.14921389  0.79291310  0.96619832     0.36400
N1021       N  0.07093111  0.71179298  0.57398388    -0.38500
N1022       N  0.16028380  0.81159430  0.95196558    -0.38500
N1023       N  0.15911059  0.70915887  0.56626922    -0.37900
N1024       N  0.07191331  0.81157676  0.95681284    -0.37900
C1025       C  0.25151407  0.00299022  0.32943869    -0.04600
C1026       C  0.22998469  0.99204109  0.35283465    -0.01700
C1027       C  0.23151653  0.99327993  0.38404897     0.03300
C1028       C  0.25479915  0.00511524  0.39353297    -0.04600
C1029       C  0.27588746  0.01667495  0.37033518    -0.01700
C1030       C  0.27422674  0.01574558  0.33915630     0.03300
C1031       C  0.20641802  0.97839104  0.34509158     0.37900
C1032       C  0.29973123  0.02966640  0.37848015     0.37900
C1033       C  0.29543985  0.02941804  0.31690927     0.36400
C1034       C  0.20823207  0.98306711  0.40682245     0.36400
N1035       N  0.31208482  0.04055877  0.29900130    -0.38500
N1036       N  0.18953393  0.97522861  0.42512199    -0.38500
N1037       N  0.32030574  0.44945173  0.41332530    -0.37900
N1038       N  0.18736780  0.96719332  0.33969007    -0.37900
C1039       C  0.25280488  0.49773868  0.09638360    -0.04600
C1040       C  0.22555443  0.50505374  0.11830341    -0.01700
C1041       C  0.22576049  0.50588851  0.14982675     0.03300
C1042       C  0.25353036  0.50013790  0.16116865    -0.04600
C1043       C  0.28169398  0.99391900  0.12220138    -0.01700
C1044       C  0.28251633  0.99390717  0.09040180     0.03300
C1045       C  0.19676882  0.51201651  0.10826377     0.37900
C1046       C  0.31023549  0.98444198  0.13234581     0.37900
C1047       C  0.31133885  0.98435736  0.06994358     0.36400
C1048       C  0.19667481  0.51298458  0.17039518     0.36400
N1049       N  0.33431672  0.97684145  0.05352665    -0.38500
N1050       N  0.17331562  0.51870702  0.18664013    -0.38500
N1051       N  0.33321334  0.97697566  0.14015582    -0.37900
N1052       N  0.17380993  0.51776732  0.10022177    -0.36100
C1053       C  0.49766614  0.83587055  0.25599238    -0.04600
C1054       C  0.97519423  0.85734933  0.27432215    -0.01700
C1055       C  0.97849660  0.88832967  0.27573027     0.03300
C1056       C  0.00377439  0.89941121  0.25776042    -0.04600
C1057       C  0.52733925  0.87723476  0.24100553    -0.01700
C1058       C  0.52431136  0.84606001  0.24030510     0.03300
C1059       C  0.94829320  0.84778622  0.29217429     0.37900
C1060       C  0.55551248  0.88582036  0.22505977     0.37900
C1061       C  0.54982139  0.82408357  0.22466428     0.36400
C1062       C  0.95639940  0.90804250  0.29744009     0.36400
N1063       N  0.57028942  0.80658178  0.21240002    -0.38500
N1064       N  0.93891473  0.92341425  0.31513831    -0.38500
N1065       N  0.57820935  0.89231175  0.21248270    -0.37900
N1066       N  0.92684831  0.84035246  0.30663298    -0.37900
C1067       C  0.99616202  0.58666390  0.25304762    -0.04600
C1068       C  0.01632757  0.60114064  0.23150858    -0.01700
C1069       C  0.01655585  0.63292309  0.23288262     0.03300
C1070       C  0.49550991  0.65188452  0.25507639    -0.04600
C1071       C  0.47508544  0.63742061  0.27647096    -0.01700
C1072       C  0.47556039  0.60537259  0.27559111     0.03300
C1073       C  0.03691434  0.58364776  0.20712621     0.37900
C1074       C  0.45347080  0.65512411  0.30006946     0.37900
C1075       C  0.45517531  0.59178301  0.29892792     0.36400
C1076       C  0.03989520  0.64539965  0.21199550     0.36400
N1077       N  0.43893692  0.58112122  0.31767970    -0.38500
N1078       N  0.05873760  0.65510281  0.19543771    -0.38500
N1079       N  0.43631757  0.66892921  0.31915282    -0.37900
N1080       N  0.05340865  0.56989688  0.18761046    -0.37900
C1081       C  0.00598450  0.90036701  0.49254261    -0.04600
C1082       C  0.01711964  0.87948760  0.01177059    -0.01700
C1083       C  0.01038672  0.84988931  0.01620636     0.03300
C1084       C  0.98941630  0.84206182  0.50233744    -0.04600
C1085       C  0.47864954  0.86239829  0.48025598    -0.01700
C1086       C  0.48672339  0.89145672  0.47545748     0.03300
C1087       C  0.03487271  0.88987540  0.03085593     0.37900
C1088       C  0.46006882  0.85317437  0.46152050     0.37900
C1089       C  0.47664625  0.91116049  0.45160129     0.36400
C1090       C  0.02186624  0.83041952  0.03956799     0.36400
N1091       N  0.46871942  0.92672466  0.43247654    -0.38500
N1092       N  0.03108984  0.81505939  0.05820931    -0.38500
N1093       N  0.44556787  0.84658384  0.44579889    -0.37900
N1094       N  0.04951586  0.89775203  0.04576495    -0.37900
C1095       C  0.49971634  0.65719370  0.01191282    -0.04600
C1096       C  0.47603316  0.65059628  0.49628269    -0.01700
C1097       C  0.47125099  0.62027495  0.50031548     0.03300
C1098       C  0.48909307  0.59651140  0.02117723    -0.04600
C1099       C  0.99938137  0.61040461  0.04309263    -0.01700
C1100       C  0.00480042  0.64058850  0.03851425     0.03300
C1101       C  0.46049998  0.67091470  0.47591226     0.37900
C1102       C  0.00327534  0.59402015  0.07083868     0.37900
C1103       C  0.01519292  0.65433659  0.06162201     0.36400
C1104       C  0.45271355  0.60936174  0.48245054     0.36400
N1105       N  0.02314027  0.66507159  0.08041539    -0.38500
N1106       N  0.43784146  0.60100115  0.46810140    -0.38500
N1107       N  0.00632757  0.58102571  0.09298603    -0.37900
N1108       N  0.44810490  0.68701937  0.45965775    -0.37900
C1109       C  0.39990710  0.50815899  0.47189408    -0.04600
C1110       C  0.39787324  0.01024356  0.44828555    -0.01700
C1111       C  0.36775570  0.00678483  0.44847908     0.03300
C1112       C  0.33932708  0.50061670  0.47976002    -0.04600
C1113       C  0.34813118  0.52429829  0.96447775    -0.01700
C1114       C  0.37818340  0.52881314  0.96144816     0.03300
C1115       C  0.42210775  0.99850293  0.42344724     0.37900
C1116       C  0.32676382  0.54632854  0.95078660     0.37900
C1117       C  0.38708247  0.55642495  0.94700789     0.36400
C1118       C  0.36148970  0.98970663  0.42509464     0.36400
N1119       N  0.39413190  0.57848142  0.93555623    -0.38500
N1120       N  0.35650440  0.97602822  0.40646631    -0.38500
N1121       N  0.30973955  0.56383485  0.93982740    -0.37900
N1122       N  0.44134817  0.98948988  0.40343335    -0.37900
C1123       C  0.10851626  0.98590069  0.02334701    -0.04600
C1124       C  0.13244695  0.96542094  0.53370742    -0.01700
C1125       C  0.16337375  0.96799018  0.52526819     0.03300
C1126       C  0.17005151  0.99259735  0.00752865    -0.04600
C1127       C  0.13941609  0.51865316  0.01850482    -0.01700
C1128       C  0.10916731  0.51521712  0.02072119     0.03300
C1129       C  0.12367396  0.94090737  0.55384343     0.37900
C1130       C  0.14815556  0.54693322  0.00555992     0.37900
C1131       C  0.08809312  0.53886013  0.00821981     0.36400
C1132       C  0.18621481  0.94603542  0.53711856     0.36400
N1133       N  0.07151743  0.55769973  0.99810559    -0.38500
N1134       N  0.20438700  0.92843393  0.54653286    -0.38500
N1135       N  0.15487259  0.56961606  0.99540051    -0.37900
N1136       N  0.11668988  0.92145213  0.57003571    -0.37900
C1137       C  0.53769403  0.98130064  0.33069359    -0.04600
C1138       C  0.53371198  0.51531685  0.34143705    -0.01700
C1139       C  0.53837001  0.51467189  0.37092433     0.03300
C1140       C  0.54554408  0.97716257  0.38987046    -0.04600
C1141       C  0.04235852  0.95069324  0.37587242    -0.01700
C1142       C  0.03807310  0.95292655  0.34620108     0.03300
C1143       C  0.52962386  0.54419800  0.32507862     0.37900
C1144       C  0.04254330  0.92182196  0.39226948     0.37900
C1145       C  0.03330003  0.92646707  0.33192689     0.36400
C1146       C  0.53944755  0.54276952  0.38498195     0.36400
N1147       N  0.02966382  0.90525403  0.32059457    -0.38500
N1148       N  0.54051794  0.56514648  0.39611474    -0.38500
N1149       N  0.04306376  0.89864600  0.40513756    -0.37900
N1150       N  0.52663239  0.56738430  0.31224492    -0.37900
C1151       C  0.95933217  0.50501881  0.11750337    -0.04600
C1152       C  0.94954233  0.53073002  0.13623609    -0.01700
C1153       C  0.95421541  0.52813203  0.16593801     0.03300
C1154       C  0.96825560  0.49977123  0.17677934    -0.04600
C1155       C  0.48600455  0.97250503  0.15894238    -0.01700
C1156       C  0.48156891  0.97548050  0.12938703     0.03300
C1157       C  0.93663474  0.56015682  0.12443338     0.37900
C1158       C  0.50031908  0.94315680  0.16988638     0.37900
C1159       C  0.49132085  0.94922449  0.10989650     0.36400
C1160       C  0.94660084  0.55497303  0.18460390     0.36400
N1161       N  0.49899982  0.92823504  0.09444158    -0.38500
N1162       N  0.94060532  0.57637335  0.19950905    -0.38500
N1163       N  0.51172572  0.91968806  0.17842549    -0.37900
N1164       N  0.92621181  0.58361417  0.11504207    -0.37900
O1165       O  0.07238483  0.95804312  0.01444060    -0.80100
O1166       O  0.45413107  0.99869864  0.96828131    -0.64800
O1167       O  0.02683805  0.49908190  0.98723497    -1.11400
C1168       C  0.96380937  0.51222314  0.58427076     1.06800
O1169       O  0.42976331  0.53649314  0.49116630    -0.78000
O1170       O  0.45252089  0.56420968  0.52858096    -0.65600
Ni1171     Ni  0.06527743  0.96324369  0.97462229     1.34900
C1172       C  0.47952554  0.56877351  0.52542751     0.85500
O1173       O  0.51107332  0.99296251  0.93543928    -0.78600
O1174       O  0.05939452  0.96728825  0.93402948    -0.88800
C1175       C  0.42902392  0.51337936  0.97503498     0.85100
O1176       O  0.04360791  0.93059525  0.98231558    -0.67000
O1177       O  0.44066676  0.52093354  0.57207639    -0.86300
C1178       C  0.01607189  0.92901786  0.98305391     0.85900
C1179       C  0.53741724  0.98011172  0.92156429     1.07500
H1180       H  0.47441477  0.98153063  0.52694636     0.39300
O1181       O  0.47999193  0.00060280  0.51886021    -1.09000
O1182       O  0.00246875  0.54729099  0.52514177    -0.65600
Ni1183     Ni  0.00923288  0.50356831  0.52863039     1.26300
O1184       O  0.49562461  0.95214148  0.97971038    -0.65900
O1185       O  0.99114314  0.50530373  0.56991894    -0.78200
C1186       C  0.07830492  0.98221069  0.52800188     0.85300
O1187       O  0.04641417  0.50690362  0.53872727    -0.65300
Ni1188     Ni  0.43612551  0.52791364  0.53107725     1.27400
Ni1189     Ni  0.49376454  0.99572456  0.97696542     1.26100
H1190       H  0.03198259  0.51877164  0.98080655     0.39800
O1191       O  0.04192997  0.98612601  0.77745374    -0.73700
O1192       O  0.00899312  0.49795099  0.70258645    -0.73700
O1193       O  0.02376506  0.53659940  0.73904062    -0.73700
O1194       O  0.02587413  0.94711451  0.74297341    -0.73800
O1195       O  0.47797780  0.95663788  0.76781673    -0.73700
O1196       O  0.47632459  0.54314309  0.76513915    -0.73700
O1197       O  0.46123661  0.50473266  0.72923449    -0.73700
O1198       O  0.49378042  0.99524339  0.80306777    -0.73700
Ni1199     Ni  0.02667658  0.49266692  0.73749195     1.25400
Ni1200     Ni  0.47720883  0.00017311  0.76759441     1.25400
C1201       C  0.02263816  0.98916664  0.80209336     0.88500
C1202       C  0.98008430  0.50307930  0.70416895     0.88500
C1203       C  0.99969347  0.55465495  0.75234447     0.88500
C1204       C  0.00164150  0.93737173  0.75608218     0.88600
O1205       O  0.28697980  0.52235928  0.99388074    -0.73700
O1206       O  0.20269887  0.52060438  0.01584655    -0.73700
O1207       O  0.24708811  0.52504574  0.54692205    -0.73700
O1208       O  0.24292936  0.52110996  0.96176630    -0.73800
O1209       O  0.26489115  0.97983176  0.94189107    -0.73700
O1210       O  0.26769189  0.97942596  0.52765597    -0.73700
O1211       O  0.22583280  0.97304058  0.49389326    -0.73700
O1212       O  0.30796276  0.98664750  0.47504985    -0.73700
Ni1213     Ni  0.24442711  0.52327943  0.00466304     1.25400
Ni1214     Ni  0.26747917  0.97802820  0.48431179     1.25400
C1215       C  0.31111896  0.01359507  0.97442471     0.88500
C1216       C  0.20394184  0.99626159  0.49785244     0.88500
C1217       C  0.25857010  0.00430397  0.54299699     0.88500
C1218       C  0.25581753  0.00499622  0.92802971     0.88600
O1219       O  0.04471659  0.74488847  0.97858445    -0.73700
O1220       O  0.45714619  0.74913772  0.97948678    -0.73700
O1221       O  0.99635024  0.79036432  0.97555527    -0.73700
O1222       O  0.00609893  0.70317278  0.98285779    -0.73800
O1223       O  0.49112689  0.70951613  0.53490308    -0.73700
O1224       O  0.47981247  0.79676625  0.52992185    -0.73700
O1225       O  0.44136714  0.75442001  0.53267840    -0.73700
O1226       O  0.02940231  0.75147851  0.53145708    -0.73700
Ni1227     Ni  0.00136209  0.74671772  0.97740762     1.25400
Ni1228     Ni  0.48503092  0.75317297  0.53396006     1.25400
C1229       C  0.04889380  0.75088655  0.50635867     0.88500
C1230       C  0.43164213  0.75373623  0.50801883     0.88500
C1231       C  0.48524221  0.80992649  0.50429084     0.88500
C1232       C  0.49649824  0.69435638  0.51082815     0.88600
O1233       O  0.04454143  0.73973958  0.74844489    -0.73700
O1234       O  0.47285787  0.75224387  0.71566790    -0.73700
O1235       O  0.00720468  0.78982275  0.73242052    -0.73700
O1236       O  0.01003642  0.70254058  0.73264557    -0.73800
O1237       O  0.48292420  0.70458062  0.77846937    -0.73700
O1238       O  0.47966020  0.79215481  0.77825994    -0.73700
O1239       O  0.44491444  0.75488513  0.76204864    -0.73700
O1240       O  0.01695288  0.74271546  0.79499809    -0.73700
Ni1241     Ni  0.00956196  0.74606067  0.73079863     1.25400
Ni1242     Ni  0.47995904  0.74856431  0.77998848     1.25400
C1243       C  0.04254009  0.74012511  0.77673258     0.88500
C1244       C  0.44710455  0.75518180  0.73366693     0.88500
C1245       C  0.49397934  0.80526569  0.75550368     0.88500
C1246       C  0.49711963  0.68866438  0.75540019     0.88600
O1247       O  0.31937888  0.73932347  0.69875993    -0.80100
O1248       O  0.18021286  0.74055713  0.75846145    -0.64800
O1249       O  0.25719593  0.75903213  0.72197855    -1.11400
C1250       C  0.26634982  0.76936812  0.81893548     1.06800
O1251       O  0.16941842  0.77103480  0.79773052    -0.78000
O1252       O  0.20844492  0.81083652  0.77460122    -0.65600
Ni1253     Ni  0.28143339  0.73133633  0.69189406     1.34900
C1254       C  0.23304721  0.81997117  0.76275217     0.85500
O1255       O  0.20563202  0.75204777  0.70313310    -0.78600
O1256       O  0.24678485  0.72126450  0.67931931    -0.88800
C1257       C  0.16194239  0.75312759  0.78102122     0.85100
O1258       O  0.28243176  0.69770869  0.71963984    -0.67000
O1259       O  0.24234110  0.78852813  0.81674243    -0.86300
C1260       C  0.25875690  0.68751389  0.73243590     0.85900
C1261       C  0.22000005  0.73670499  0.68055997     1.07500
H1262       H  0.23362572  0.72902485  0.78595816     0.39300
O1263       O  0.23157305  0.74906495  0.77659981    -1.09000
O1264       O  0.25895791  0.80197345  0.76032822    -0.65600
Ni1265     Ni  0.27065873  0.75737778  0.75894375     1.26300
O1266       O  0.23234831  0.70490638  0.73782416    -0.65900
O1267       O  0.28216715  0.75403807  0.79672627    -0.78200
C1268       C  0.32764783  0.75385576  0.71782704     0.85300
O1269       O  0.30982636  0.76461574  0.74140898    -0.65300
Ni1270     Ni  0.20736218  0.77899992  0.80461315     1.27400
Ni1271     Ni  0.21849346  0.74947287  0.73995667     1.26100
H1272       H  0.25418679  0.77947259  0.71355492     0.39800
O1273       O  0.23446558  0.72351359  0.54283728    -0.73700
O1274       O  0.26247295  0.72642658  0.95682370    -0.73700
O1275       O  0.28871323  0.72723154  0.50421187    -0.73700
O1276       O  0.20300775  0.72836029  0.49839310    -0.73800
O1277       O  0.19765639  0.77363516  0.99942808    -0.73700
O1278       O  0.28300906  0.77498150  0.00460955    -0.73700
O1279       O  0.25142386  0.77707332  0.95935392    -0.73700
O1280       O  0.22424489  0.77395504  0.54715650    -0.73700
Ni1281     Ni  0.24624950  0.72616067  0.50076560     1.25400
Ni1282     Ni  0.23996277  0.77599772  0.00191737     1.25400
C1283       C  0.22422648  0.74721149  0.55897038     0.88500
C1284       C  0.26127646  0.75269980  0.94393661     0.88500
C1285       C  0.30316179  0.74993478  0.00325132     0.88500
C1286       C  0.18318768  0.75367757  0.50037163     0.88600
O1287       O  0.22119509  0.97016728  0.74389917    -0.73700
O1288       O  0.23186421  0.55014834  0.75634609    -0.73700
O1289       O  0.22828970  0.50834524  0.71540951    -0.73700
O1290       O  0.22730925  0.01108262  0.78477491    -0.73800
O1291       O  0.27730488  0.99478678  0.77572889    -0.73700
O1292       O  0.27843015  0.49411046  0.70616803    -0.73700
O1293       O  0.28242772  0.53581533  0.74708155    -0.73700
O1294       O  0.27133660  0.95301053  0.73561223    -0.73700
Ni1295     Ni  0.22624274  0.01203778  0.74134399     1.25400
Ni1296     Ni  0.27973932  0.49312912  0.74943224     1.25400
C1297       C  0.24399712  0.94785437  0.74092295     0.88500
C1298       C  0.25850874  0.55694159  0.75066960     0.88500
C1299       C  0.25345024  0.50131719  0.69593028     0.88500
C1300       C  0.25228263  0.00330340  0.79499685     0.88600
C1301       C  0.26143932  0.58985225  0.74768740    -0.04600
C1302       C  0.27995542  0.60056117  0.72210658    -0.01700
C1303       C  0.27971727  0.63229537  0.71753756     0.03300
C1304       C  0.26153615  0.65378029  0.73895647    -0.04600
C1305       C  0.24477889  0.64268430  0.76556885    -0.01700
C1306       C  0.24447061  0.61100630  0.76970627     0.03300
C1307       C  0.29825954  0.57908157  0.69963584     0.37900
C1308       C  0.22814528  0.66356333  0.78918719     0.37900
C1309       C  0.22709175  0.60005880  0.79707858     0.36400
C1310       C  0.29700221  0.64271590  0.68981718     0.36400
N1311       N  0.21328660  0.59130778  0.81891966    -0.38500
N1312       N  0.31076024  0.65097467  0.66768992    -0.38500
N1313       N  0.21449528  0.67957753  0.80843315    -0.37900
N1314       N  0.31297617  0.56201560  0.68173502    -0.37900
C1315       C  0.23227354  0.85310065  0.75416488    -0.04600
C1316       C  0.21299017  0.87635909  0.77286532    -0.01700
C1317       C  0.21592645  0.90733069  0.76771412     0.03300
C1318       C  0.23859812  0.91559693  0.74423598    -0.04600
C1319       C  0.25618115  0.89276927  0.72415745    -0.01700
C1320       C  0.25273118  0.86183355  0.72881380     0.03300
C1321       C  0.19078621  0.86859633  0.79835550     0.37900
C1322       C  0.27715396  0.90125228  0.69800585     0.37900
C1323       C  0.26967643  0.83932972  0.70676554     0.36400
C1324       C  0.19590916  0.93045656  0.78739437     0.36400
N1325       N  0.28349119  0.82198034  0.68871458    -0.38500
N1326       N  0.17938727  0.94857641  0.80309242    -0.38500
N1327       N  0.29376536  0.90805992  0.67708994    -0.37900
N1328       N  0.17297020  0.86257325  0.81864009    -0.37900
C1329       C  0.21279608  0.74343542  0.59173561    -0.04600
C1330       C  0.21598842  0.71379518  0.60557878    -0.01700
C1331       C  0.21303431  0.71108697  0.63670837     0.03300
C1332       C  0.20661341  0.73757111  0.65389049    -0.04600
C1333       C  0.19573280  0.76612067  0.64132619    -0.01700
C1334       C  0.19940738  0.76934322  0.61007738     0.03300
C1335       C  0.22331910  0.68587391  0.58844349     0.37900
C1336       C  0.18260365  0.79249307  0.66025819     0.37900
C1337       C  0.19032488  0.79954526  0.59737460     0.36400
C1338       C  0.21816099  0.68114715  0.65117852     0.36400
N1339       N  0.18317975  0.82375338  0.58748134    -0.38500
N1340       N  0.22217259  0.65735734  0.66282314    -0.38500
N1341       N  0.17172746  0.81345434  0.67532470    -0.37900
N1342       N  0.22900377  0.66348145  0.57499320    -0.37900
C1343       C  0.27406530  0.76349484  0.84858171    -0.04600
C1344       C  0.27482627  0.73386031  0.86135459    -0.01700
C1345       C  0.27304198  0.72952932  0.89233688     0.03300
C1346       C  0.27044271  0.75507406  0.91070616    -0.04600
C1347       C  0.27468105  0.78365939  0.89676448    -0.01700
C1348       C  0.27517951  0.78810763  0.86600782     0.03300
C1349       C  0.27460794  0.70818507  0.84312562     0.37900
C1350       C  0.27908687  0.80852836  0.91362130     0.37900
C1351       C  0.27558258  0.81833997  0.85242226     0.36400
C1352       C  0.27302931  0.69878315  0.90478649     0.36400
N1353       N  0.27556539  0.84245409  0.84156045    -0.38500
N1354       N  0.27323084  0.67414040  0.91438970    -0.38500
N1355       N  0.28291215  0.82831819  0.92691389    -0.37900
N1356       N  0.27441222  0.68767808  0.82872618    -0.37900
C1357       C  0.13029273  0.74738808  0.78729990    -0.04600
C1358       C  0.12460760  0.71843795  0.78094937    -0.01700
C1359       C  0.09470297  0.71485849  0.78101518     0.03300
C1360       C  0.07051684  0.73988629  0.78762623    -0.04600
C1361       C  0.07540835  0.76743688  0.79775707    -0.01700
C1362       C  0.10532017  0.77142438  0.79728315     0.03300
C1363       C  0.14930340  0.69245204  0.77306524     0.37900
C1364       C  0.04991287  0.79261900  0.80629746     0.37900
C1365       C  0.11014569  0.80124697  0.80439154     0.36400
C1366       C  0.08875946  0.68579687  0.77303286     0.36400
N1367       N  0.11381382  0.82511555  0.80996962    -0.38500
N1368       N  0.08393148  0.66266095  0.76676453    -0.38500
N1369       N  0.02974294  0.81276597  0.81329481    -0.37900
N1370       N  0.16842958  0.67134361  0.76632785    -0.37900
C1371       C  0.41920508  0.75759993  0.72185936    -0.04600
C1372       C  0.39691084  0.78447896  0.72639298    -0.01700
C1373       C  0.36720173  0.78422551  0.72256048     0.03300
C1374       C  0.35994693  0.75701771  0.71369743    -0.04600
C1375       C  0.38356105  0.73133599  0.70534256    -0.01700
C1376       C  0.41314367  0.73158028  0.70976553     0.03300
C1377       C  0.40447254  0.81222703  0.73557808     0.37900
C1378       C  0.37715417  0.70366523  0.69467138     0.37900
C1379       C  0.43668163  0.70420968  0.70415985     0.36400
C1380       C  0.34407288  0.81175011  0.72898159     0.36400
N1381       N  0.45536739  0.68233889  0.69977255    -0.38500
N1382       N  0.32618293  0.83401653  0.73459941    -0.38500
N1383       N  0.37216360  0.68157543  0.68610658    -0.37900
N1384       N  0.41042315  0.83453242  0.74255265    -0.37900
C1385       C  0.33721031  0.75054761  0.00359628    -0.04600
C1386       C  0.34828623  0.73399419  0.52783520    -0.01700
C1387       C  0.37978793  0.73474717  0.52845899     0.03300
C1388       C  0.40224949  0.75121309  0.00397731    -0.04600
C1389       C  0.39231006  0.74343851  0.97800498    -0.01700
C1390       C  0.36073406  0.74293903  0.97799511     0.03300
C1391       C  0.33216401  0.71419490  0.54867295     0.37900
C1392       C  0.41450212  0.73534462  0.95071263     0.37900
C1393       C  0.35224759  0.73508489  0.95091886     0.36400
C1394       C  0.39478918  0.71487149  0.54933571     0.36400
N1395       N  0.34545168  0.72888522  0.92929046    -0.38500
N1396       N  0.40677762  0.69879779  0.56589571    -0.38500
N1397       N  0.43197241  0.72892690  0.92872173    -0.37900
N1398       N  0.31926811  0.69830401  0.56522866    -0.37900
C1399       C  0.08331343  0.75219739  0.50517115    -0.04600
C1400       C  0.10049323  0.76818531  0.48179397    -0.01700
C1401       C  0.13229156  0.76903139  0.48037089     0.03300
C1402       C  0.14873124  0.75342305  0.50179155    -0.04600
C1403       C  0.13162156  0.73783914  0.52526368    -0.01700
C1404       C  0.09960696  0.73787595  0.52736064     0.03300
C1405       C  0.08513920  0.78519776  0.45952773     0.37900
C1406       C  0.14695999  0.72197235  0.54805504     0.37900
C1407       C  0.09357364  0.70053994  0.03475438     0.36400
C1408       C  0.14843401  0.78559174  0.45614647     0.36400
N1409       N  0.08307512  0.68088556  0.04775186    -0.38500
N1410       N  0.16141475  0.79874884  0.43678515    -0.38500
N1411       N  0.16787288  0.68727645  0.05166863    -0.37900
N1412       N  0.07289384  0.79891271  0.44177994    -0.37900
C1413       C  0.25269138  0.00434553  0.82941876    -0.04600
C1414       C  0.22674035  0.00205064  0.85263892    -0.01700
C1415       C  0.22811204  0.00141731  0.88403167     0.03300
C1416       C  0.25471317  0.00505633  0.89405176    -0.04600
C1417       C  0.27992107  0.00940003  0.87118283    -0.01700
C1418       C  0.27927856  0.00830096  0.83977347     0.03300
C1419       C  0.19779379  0.00126054  0.84474817     0.37900
C1420       C  0.30647586  0.01658853  0.87990759     0.37900
C1421       C  0.30611926  0.01285127  0.81807527     0.36400
C1422       C  0.20161957  0.99719057  0.90639719     0.36400
N1423       N  0.32760900  0.01652576  0.80082661    -0.38500
N1424       N  0.18055407  0.99366619  0.92431185    -0.38500
N1425       N  0.32429663  0.45678042  0.91234328    -0.37900
N1426       N  0.17413882  0.00143789  0.83917937    -0.37900
C1427       C  0.25320844  0.50047042  0.59607049    -0.04600
C1428       C  0.22595591  0.50844153  0.61788102    -0.01700
C1429       C  0.22593972  0.50858397  0.64952478     0.03300
C1430       C  0.25349503  0.50140011  0.66120253    -0.04600
C1431       C  0.28354525  0.99647455  0.62154922    -0.01700
C1432       C  0.28437251  0.99565550  0.58976326     0.03300
C1433       C  0.19736949  0.51678161  0.60759776     0.37900
C1434       C  0.31233995  0.99065876  0.63150006     0.37900
C1435       C  0.31335317  0.98676907  0.56936912     0.36400
C1436       C  0.19683574  0.51650749  0.66989486     0.36400
N1437       N  0.33647596  0.97954408  0.55308696    -0.38500
N1438       N  0.17346815  0.52288605  0.68600215    -0.38500
N1439       N  0.33550528  0.98636050  0.63914347    -0.37900
N1440       N  0.17458299  0.52363185  0.59934068    -0.36100
C1441       C  0.49614262  0.83883200  0.75654808    -0.04600
C1442       C  0.97303503  0.86038035  0.77468387    -0.01700
C1443       C  0.97528911  0.89176848  0.77526325     0.03300
C1444       C  0.00053957  0.90312907  0.75751258    -0.04600
C1445       C  0.52472876  0.88094019  0.74140265    -0.01700
C1446       C  0.52255851  0.84952639  0.74105597     0.03300
C1447       C  0.94660699  0.85023981  0.79287538     0.37900
C1448       C  0.55278733  0.88997877  0.72572836     0.37900
C1449       C  0.54869057  0.82788435  0.72591143     0.36400
C1450       C  0.95178599  0.91179617  0.79551469     0.36400
N1451       N  0.56962723  0.81068670  0.71398270    -0.38500
N1452       N  0.93305930  0.92749323  0.81192304    -0.38500
N1453       N  0.57539560  0.89682208  0.71337024    -0.37900
N1454       N  0.92555493  0.84234673  0.80762760    -0.37900
C1455       C  0.99887414  0.58910311  0.75312516    -0.04600
C1456       C  0.01959505  0.60354980  0.73214777    -0.01700
C1457       C  0.01951170  0.63543125  0.73349370     0.03300
C1458       C  0.49822760  0.65410398  0.75512423    -0.04600
C1459       C  0.47755763  0.63965467  0.77621824    -0.01700
C1460       C  0.47763485  0.60776597  0.77492093     0.03300
C1461       C  0.04081539  0.58602887  0.70815647     0.37900
C1462       C  0.45582762  0.65726405  0.79980964     0.37900
C1463       C  0.45564911  0.59465606  0.79695237     0.36400
C1464       C  0.04235328  0.64826072  0.71226396     0.36400
N1465       N  0.43793580  0.58444437  0.81450166    -0.38500
N1466       N  0.06065766  0.65829516  0.69528841    -0.38500
N1467       N  0.43858184  0.67096003  0.81890245    -0.37900
N1468       N  0.05779827  0.57231043  0.68891086    -0.37900
C1469       C  0.00753343  0.89851165  0.98839340    -0.04600
C1470       C  0.01634624  0.88045886  0.51503586    -0.01700
C1471       C  0.00814289  0.85146222  0.51990395     0.03300
C1472       C  0.99441728  0.83871347  0.99691021    -0.04600
C1473       C  0.48467428  0.85782603  0.97372139    -0.01700
C1474       C  0.49103258  0.88767386  0.96958316     0.03300
C1475       C  0.03597490  0.88942966  0.53298801     0.37900
C1476       C  0.46859034  0.84671580  0.95353029     0.37900
C1477       C  0.48250592  0.90631517  0.94452833     0.36400
C1478       C  0.02118451  0.83055805  0.54147169     0.36400
N1479       N  0.47594907  0.92087168  0.92427027    -0.38500
N1480       N  0.03187290  0.81408966  0.55859130    -0.38500
N1481       N  0.45600903  0.83785582  0.93720784    -0.37900
N1482       N  0.05187330  0.89632127  0.54712533    -0.37900
C1483       C  0.49474735  0.66144237  0.51280921    -0.04600
C1484       C  0.49052849  0.64234914  0.98951253    -0.01700
C1485       C  0.48554661  0.61210404  0.99413237     0.03300
C1486       C  0.48463709  0.60063792  0.52131676    -0.04600
C1487       C  0.00351734  0.61119997  0.53782331    -0.01700
C1488       C  0.00896578  0.64134268  0.53316692     0.03300
C1489       C  0.48460250  0.65822980  0.96211338     0.37900
C1490       C  0.01641973  0.59162527  0.56032631     0.37900
C1491       C  0.02994136  0.65132870  0.54867778     0.36400
C1492       C  0.47694044  0.59676224  0.97082530     0.36400
N1493       N  0.04703682  0.65854380  0.56113300    -0.38500
N1494       N  0.47020009  0.58441968  0.95229240    -0.38500
N1495       N  0.02652162  0.57601019  0.57834199    -0.37900
N1496       N  0.47982961  0.67058514  0.94014820    -0.37900
C1497       C  0.39952397  0.50667248  0.97290438    -0.04600
C1498       C  0.39681759  0.00653364  0.94914925    -0.01700
C1499       C  0.36673639  0.00251374  0.95032631     0.03300
C1500       C  0.33909712  0.49833883  0.98054750    -0.04600
C1501       C  0.34879331  0.52602184  0.46294462    -0.01700
C1502       C  0.37917038  0.52972668  0.45913083     0.03300
C1503       C  0.42120395  0.99159499  0.92598138     0.37900
C1504       C  0.32751102  0.54855358  0.44964850     0.37900
C1505       C  0.38913216  0.55581077  0.44236881     0.36400
C1506       C  0.36102855  0.98053148  0.93090865     0.36400
N1507       N  0.39709514  0.57648963  0.42880352    -0.38500
N1508       N  0.35659119  0.96284930  0.91550082    -0.38500
N1509       N  0.31062502  0.56667328  0.43912977    -0.37900
N1510       N  0.44046449  0.98023285  0.90702643    -0.37900
C1511       C  0.10989733  0.98707211  0.52312061    -0.04600
C1512       C  0.13148305  0.96296187  0.03156934    -0.01700
C1513       C  0.16221838  0.96624555  0.02380291     0.03300
C1514       C  0.17179265  0.99221086  0.50592020    -0.04600
C1515       C  0.13950794  0.52243693  0.51895644    -0.01700
C1516       C  0.10899642  0.51961398  0.52173294     0.03300
C1517       C  0.12333787  0.93616628  0.04842380     0.37900
C1518       C  0.14850261  0.55058138  0.50590567     0.37900
C1519       C  0.08786322  0.54404238  0.51025397     0.36400
C1520       C  0.18538945  0.94270681  0.03332641     0.36400
N1521       N  0.07124708  0.56346578  0.50088995    -0.38500
N1522       N  0.20373276  0.92381751  0.04096900    -0.38500
N1523       N  0.15536848  0.57314482  0.49557448    -0.37900
N1524       N  0.11680871  0.91487754  0.06195877    -0.37900
C1525       C  0.53360297  0.98495604  0.83009380    -0.04600
C1526       C  0.53342764  0.51518724  0.84150575    -0.01700
C1527       C  0.53708875  0.51425778  0.87133360     0.03300
C1528       C  0.54225373  0.98034092  0.88894642    -0.04600
C1529       C  0.04186825  0.95382562  0.87398871    -0.01700
C1530       C  0.03675826  0.95631355  0.84459822     0.03300
C1531       C  0.52859915  0.54437759  0.82578803     0.37900
C1532       C  0.04609760  0.92413964  0.88893581     0.37900
C1533       C  0.03396617  0.92945225  0.82955595     0.36400
C1534       C  0.53606193  0.54242063  0.88637981     0.36400
N1535       N  0.03186214  0.90795427  0.81760619    -0.38500
N1536       N  0.53535402  0.56487966  0.89831858    -0.38500
N1537       N  0.05001489  0.90033737  0.90057595    -0.37900
N1538       N  0.52498597  0.56783252  0.81350699    -0.37900
C1539       C  0.95966983  0.51040486  0.61701086    -0.04600
C1540       C  0.95595896  0.53731742  0.63338502    -0.01700
C1541       C  0.96050710  0.53511629  0.66308581     0.03300
C1542       C  0.96848763  0.50602073  0.67623634    -0.04600
C1543       C  0.48121068  0.97675801  0.65865583    -0.01700
C1544       C  0.47795739  0.98015243  0.62875974     0.03300
C1545       C  0.94983057  0.56710327  0.61892466     0.37900
C1546       C  0.49365294  0.94690801  0.67008723     0.37900
C1547       C  0.48683393  0.95381798  0.60930036     0.36400
C1548       C  0.95821187  0.56263079  0.67965780     0.36400
N1549       N  0.49381124  0.93292304  0.59369796    -0.38500
N1550       N  0.95621946  0.58462163  0.69287356    -0.38500
N1551       N  0.50358367  0.92304690  0.67903130    -0.37900
N1552       N  0.94501502  0.59081537  0.60729030    -0.37900
O1553       O  0.56848697  0.46482624  0.51429461    -0.80100
O1554       O  0.95328496  0.49707726  0.46341426    -0.64800
O1555       O  0.53364466  0.99640197  0.48755832    -1.11400
C1556       C  0.47176136  0.00894024  0.08598554     1.06800
O1557       O  0.93920097  0.04036647  0.99440387    -0.78000
O1558       O  0.96226621  0.06259025  0.03508573    -0.65600
Ni1559     Ni  0.56211713  0.47095283  0.47409291     1.34900
C1560       C  0.98972657  0.06577564  0.02734918     0.85500
O1561       O  0.00915521  0.49872059  0.43321904    -0.78600
O1562       O  0.55780588  0.47538664  0.43291243    -0.88800
C1563       C  0.93609388  0.02300732  0.47611679     0.85100
O1564       O  0.54301750  0.43618908  0.47962407    -0.67000
O1565       O  0.94795602  0.01672667  0.07460871    -0.86300
C1566       C  0.51608370  0.43331324  0.47902613     0.85900
C1567       C  0.03602488  0.48707017  0.41987364     1.07500
H1568       H  0.96811905  0.47747686  0.02324582     0.39300
O1569       O  0.97296147  0.49729420  0.01688776    -1.09000
O1570       O  0.51209468  0.04355344  0.02329285    -0.65600
Ni1571     Ni  0.51613707  0.00014807  0.02943936     1.26300
O1572       O  0.99521733  0.45569916  0.47555781    -0.65900
O1573       O  0.49907847  0.00446914  0.07100351    -0.78200
C1574       C  0.57039613  0.48255938  0.02971661     0.85300
O1575       O  0.55500845  0.00145126  0.03750018    -0.65300
Ni1576     Ni  0.94384573  0.02794772  0.03422786     1.27400
Ni1577     Ni  0.99039708  0.49924655  0.47430622     1.26100
H1578       H  0.54072488  0.01447585  0.47859011     0.39800
O1579       O  0.53952887  0.48723584  0.27543882    -0.73700
O1580       O  0.51641059  0.99030823  0.20538678    -0.73700
O1581       O  0.53194738  0.03006487  0.24035759    -0.73700
O1582       O  0.52608397  0.44646355  0.24062316    -0.73800
O1583       O  0.97841642  0.45284180  0.26626706    -0.73700
O1584       O  0.98415535  0.03960536  0.26574295    -0.73700
O1585       O  0.96821331  0.00085207  0.23066378    -0.73700
O1586       O  0.99184295  0.49325342  0.30192315    -0.73700
Ni1587     Ni  0.53275104  0.98614145  0.24082276     1.25400
Ni1588     Ni  0.97452430  0.49699288  0.26687250     1.25400
C1589       C  0.52065033  0.48944033  0.30040632     0.88500
C1590       C  0.48769461  0.99649488  0.20606292     0.88500
C1591       C  0.50836783  0.04935378  0.25286002     0.88500
C1592       C  0.50306732  0.43480216  0.25373962     0.88600
O1593       O  0.79046850  0.03692525  0.47671086    -0.73700
O1594       O  0.70927193  0.02344923  0.49496066    -0.73700
O1595       O  0.74880800  0.02955915  0.02951300    -0.73700
O1596       O  0.74928836  0.03034610  0.44217771    -0.73800
O1597       O  0.75450820  0.47278596  0.46201669    -0.73700
O1598       O  0.75743362  0.47140928  0.04846563    -0.73700
O1599       O  0.71327497  0.46981363  0.01598521    -0.73700
O1600       O  0.79781448  0.47158986  0.99438428    -0.73700
Ni1601     Ni  0.74923737  0.03173350  0.48562109     1.25400
Ni1602     Ni  0.75602761  0.46899937  0.00541804     1.25400
C1603       C  0.80665614  0.49987921  0.48915875     0.88500
C1604       C  0.69393743  0.49500384  0.01976800     0.88500
C1605       C  0.75238524  0.49706101  0.06239702     0.88500
C1606       C  0.74898625  0.49801042  0.44695310     0.88600
O1607       O  0.54440933  0.24902785  0.47266004    -0.73700
O1608       O  0.95655564  0.25280799  0.47456584    -0.73700
O1609       O  0.49577283  0.29451249  0.46984816    -0.73700
O1610       O  0.50626916  0.20720488  0.47767776    -0.73800
O1611       O  0.99342821  0.20946185  0.02881237    -0.73700
O1612       O  0.98492185  0.29608895  0.02065619    -0.73700
O1613       O  0.94487294  0.25598097  0.02536889    -0.73700
O1614       O  0.53339751  0.24969371  0.02338673    -0.73700
Ni1615     Ni  0.50092946  0.25076738  0.47193932     1.25400
Ni1616     Ni  0.98874146  0.25293192  0.02625746     1.25400
C1617       C  0.55281595  0.24821545  0.99820683     0.88500
C1618       C  0.93508060  0.25385413  0.00104413     0.88500
C1619       C  0.98998398  0.30837463  0.99461842     0.88500
C1620       C  0.00055077  0.19267446  0.00567676     0.88600
O1621       O  0.55712942  0.23356132  0.24469097    -0.73700
O1622       O  0.98458774  0.24778533  0.21347282    -0.73700
O1623       O  0.51957586  0.28460773  0.22965151    -0.73700
O1624       O  0.52162616  0.19694916  0.22942324    -0.73800
O1625       O  0.99490646  0.19951667  0.27575266    -0.73700
O1626       O  0.99277358  0.28668716  0.27603664    -0.73700
O1627       O  0.95721454  0.25049515  0.26009647    -0.73700
O1628       O  0.53019134  0.23607317  0.29146594    -0.73700
Ni1629     Ni  0.52170813  0.24066029  0.22769715     1.25400
Ni1630     Ni  0.99271378  0.24326970  0.27744105     1.25400
C1631       C  0.55566480  0.23315876  0.27292964     0.88500
C1632       C  0.95901631  0.25108168  0.23175832     0.88500
C1633       C  0.00603633  0.30030421  0.25306156     0.88500
C1634       C  0.00862874  0.18346106  0.25267718     0.88600
O1635       O  0.83128457  0.23496881  0.19787107    -0.80100
O1636       O  0.69142443  0.23997581  0.25410553    -0.64800
O1637       O  0.76920244  0.25760567  0.22019240    -1.11400
C1638       C  0.78071177  0.26021670  0.31748290     1.06800
O1639       O  0.68264535  0.26051209  0.29911852    -0.78000
O1640       O  0.71914921  0.30398574  0.27899795    -0.65600
Ni1641     Ni  0.79294319  0.23226697  0.18796113     1.34900
C1642       C  0.74307708  0.31452910  0.26741317     0.85500
O1643       O  0.71698706  0.25651284  0.20036993    -0.78600
O1644       O  0.75783686  0.22825115  0.17246234    -0.88800
C1645       C  0.67443151  0.24705809  0.27922708     0.85100
O1646       O  0.79150997  0.19506488  0.21063248    -0.67000
O1647       O  0.75567978  0.27846827  0.31733596    -0.86300
C1648       C  0.76713302  0.18590519  0.22295172     0.85900
C1649       C  0.73110021  0.24433041  0.17593854     1.07500
H1650       H  0.74695768  0.22178440  0.28028554     0.39300
O1651       O  0.74432843  0.24292871  0.27359113    -1.09000
O1652       O  0.76952655  0.29719786  0.26214810    -0.65600
Ni1653     Ni  0.78299826  0.25290060  0.25682746     1.26300
O1654       O  0.74172723  0.20445193  0.23047901    -0.65900
O1655       O  0.79575429  0.24624228  0.29419643    -0.78200
C1656       C  0.83946291  0.25025524  0.21641380     0.85300
O1657       O  0.82137012  0.26223171  0.23936577    -0.65300
Ni1658     Ni  0.72064343  0.26897234  0.30537100     1.27400
Ni1659     Ni  0.73019360  0.24860858  0.23700955     1.26100
H1660       H  0.76664872  0.27859021  0.21327997     0.39800
O1661       O  0.73651725  0.22757185  0.04223200    -0.73700
O1662       O  0.76418626  0.22616238  0.45674729    -0.73700
O1663       O  0.79155550  0.22767151  0.00332517    -0.73700
O1664       O  0.70682887  0.22529866  0.99676806    -0.73800
O1665       O  0.69785029  0.27689134  0.49329414    -0.73700
O1666       O  0.78236431  0.27993956  0.50071341    -0.73700
O1667       O  0.75338051  0.27690037  0.45461691    -0.73700
O1668       O  0.72522421  0.27827595  0.04058412    -0.73700
Ni1669     Ni  0.74963250  0.22474358  0.00012124     1.25400
Ni1670     Ni  0.73969155  0.28012715  0.49686228     1.25400
C1671       C  0.72587299  0.25308346  0.05550805     0.88500
C1672       C  0.76459083  0.25119476  0.44172459     0.88500
C1673       C  0.80229647  0.25499221  0.50174936     0.88500
C1674       C  0.68694679  0.25020579  0.99532851     0.88600
O1675       O  0.72400055  0.46549390  0.26108525    -0.73700
O1676       O  0.73374031  0.05177497  0.23945564    -0.73700
O1677       O  0.72784563  0.01213149  0.19748930    -0.73700
O1678       O  0.72782447  0.50687279  0.30188250    -0.73800
O1679       O  0.77802011  0.49241668  0.29306309    -0.73700
O1680       O  0.77729142  0.99330914  0.18912560    -0.73700
O1681       O  0.78392715  0.03415483  0.22937691    -0.73700
O1682       O  0.77458889  0.45095637  0.25165464    -0.73700
Ni1683     Ni  0.72673472  0.50813250  0.25888533     1.25400
Ni1684     Ni  0.77814856  0.99228306  0.23222676     1.25400
C1685       C  0.74789595  0.44434393  0.25710000     0.88500
C1686       C  0.76110839  0.05652414  0.23368187     0.88500
C1687       C  0.75294999  0.00297181  0.17841109     0.88500
C1688       C  0.75257897  0.49922983  0.31229688     0.88600
C1689       C  0.76592606  0.08864844  0.23177379    -0.04600
C1690       C  0.77844680  0.10128149  0.20414474    -0.01700
C1691       C  0.77885637  0.13299746  0.20138002     0.03300
C1692       C  0.76784413  0.15221006  0.22657373    -0.04600
C1693       C  0.75641878  0.13911333  0.25452104    -0.01700
C1694       C  0.75521787  0.10757263  0.25698413     0.03300
C1695       C  0.78955096  0.08184133  0.17818811     0.37900
C1696       C  0.74558496  0.15771909  0.28099794     0.37900
C1697       C  0.74290884  0.09449751  0.28562992     0.36400
C1698       C  0.78844093  0.14615854  0.17202824     0.36400
N1699       N  0.73304207  0.08417495  0.30848729    -0.38500
N1700       N  0.79567827  0.15663749  0.14852292    -0.38500
N1701       N  0.73645252  0.17143140  0.30283255    -0.37900
N1702       N  0.79844106  0.06620528  0.15759443    -0.37900
C1703       C  0.74098318  0.34839906  0.26305876    -0.04600
C1704       C  0.72612414  0.36834583  0.28700953    -0.01700
C1705       C  0.72841849  0.39963861  0.28504906     0.03300
C1706       C  0.74470277  0.41163372  0.25882825    -0.04600
C1707       C  0.75829245  0.39220824  0.23437721    -0.01700
C1708       C  0.75642107  0.36079944  0.23641271     0.03300
C1709       C  0.70933045  0.35659494  0.31428133     0.37900
C1710       C  0.77399095  0.40468211  0.20687091     0.37900
C1711       C  0.76964284  0.34179675  0.21048171     0.36400
C1712       C  0.71575041  0.41907298  0.31082917     0.36400
N1713       N  0.78035665  0.32770374  0.18908962    -0.38500
N1714       N  0.70598505  0.43453231  0.33145547    -0.38500
N1715       N  0.78648842  0.41465276  0.18496165    -0.37900
N1716       N  0.69570214  0.34731101  0.33594247    -0.37900
C1717       C  0.71579325  0.25305766  0.08870242    -0.04600
C1718       C  0.71353807  0.22495961  0.10469245    -0.01700
C1719       C  0.71397245  0.22311825  0.13531542     0.03300
C1720       C  0.71684059  0.24893295  0.14985147    -0.04600
C1721       C  0.71330801  0.27793383  0.13570624    -0.01700
C1722       C  0.71186340  0.28021477  0.10519932     0.03300
C1723       C  0.71237232  0.19731817  0.08994548     0.37900
C1724       C  0.71434750  0.30491562  0.15167024     0.37900
C1725       C  0.70767256  0.31037900  0.09111047     0.36400
C1726       C  0.71359326  0.19420112  0.15166264     0.36400
N1727       N  0.70402378  0.33457333  0.08019836    -0.38500
N1728       N  0.71324100  0.17127815  0.16485727    -0.38500
N1729       N  0.71534585  0.32639350  0.16431458    -0.37900
N1730       N  0.71189549  0.17488812  0.07857576    -0.37900
C1731       C  0.79054923  0.25461224  0.34619323    -0.04600
C1732       C  0.78935121  0.22590715  0.36041562    -0.01700
C1733       C  0.78256412  0.22391079  0.39187993     0.03300
C1734       C  0.77811614  0.25075390  0.40901903    -0.04600
C1735       C  0.78598119  0.27784468  0.39415827    -0.01700
C1736       C  0.79140561  0.27987879  0.36280209     0.03300
C1737       C  0.79246647  0.19896931  0.34267283     0.37900
C1738       C  0.78812253  0.30396184  0.41071408     0.37900
C1739       C  0.79612953  0.30850275  0.34745340     0.36400
C1740       C  0.77864518  0.19451851  0.40591899     0.36400
N1741       N  0.79984167  0.33128265  0.33512438    -0.38500
N1742       N  0.77561541  0.17093957  0.41683420    -0.38500
N1743       N  0.78986279  0.32483966  0.42382031    -0.37900
N1744       N  0.79521740  0.17744202  0.32854387    -0.37900
C1745       C  0.64340381  0.23975061  0.28492132    -0.04600
C1746       C  0.63886524  0.21224475  0.27381912    -0.01700
C1747       C  0.60925619  0.20840229  0.27287126     0.03300
C1748       C  0.58416157  0.23161040  0.28351233    -0.04600
C1749       C  0.58817034  0.25692601  0.29843343    -0.01700
C1750       C  0.61782598  0.26126762  0.29882933     0.03300
C1751       C  0.66451557  0.18816795  0.26240679     0.37900
C1752       C  0.56195424  0.27997879  0.31091007     0.37900
C1753       C  0.62173462  0.28928700  0.31105080     0.36400
C1754       C  0.60457441  0.18111737  0.25983766     0.36400
N1755       N  0.62473159  0.31172911  0.32071007    -0.38500
N1756       N  0.60084745  0.15937486  0.24947158    -0.38500
N1757       N  0.54103068  0.29829585  0.32088041    -0.37900
N1758       N  0.68459026  0.16872896  0.25304333    -0.37900
C1759       C  0.93100270  0.25349981  0.22024472    -0.04600
C1760       C  0.90902503  0.28071498  0.22379030    -0.01700
C1761       C  0.87940897  0.28052658  0.21957640     0.03300
C1762       C  0.87181932  0.25287473  0.21234891    -0.04600
C1763       C  0.89507677  0.22673368  0.20505161    -0.01700
C1764       C  0.92471107  0.22712015  0.20905061     0.03300
C1765       C  0.91677853  0.30862990  0.23235019     0.37900
C1766       C  0.88829961  0.19862625  0.19573992     0.37900
C1767       C  0.94810259  0.19958889  0.20387303     0.36400
C1768       C  0.85669361  0.30862823  0.22319355     0.36400
N1769       N  0.96664663  0.17758933  0.19973963    -0.38500
N1770       N  0.83870503  0.33111125  0.22607667    -0.38500
N1771       N  0.88304253  0.17617282  0.18825982    -0.37900
N1772       N  0.92294217  0.33097170  0.23899534    -0.37900
C1773       C  0.83659837  0.25567668  0.50139789    -0.04600
C1774       C  0.84439209  0.27374604  0.02114092    -0.01700
C1775       C  0.87622792  0.27393520  0.02052801     0.03300
C1776       C  0.90196723  0.25606908  0.49992038    -0.04600
C1777       C  0.89242450  0.23669967  0.48129169    -0.01700
C1778       C  0.86067329  0.23645948  0.48208974     0.03300
C1779       C  0.82105257  0.29352527  0.04162234     0.37900
C1780       C  0.91539467  0.21609671  0.46131192     0.37900
C1781       C  0.85275698  0.21677467  0.46190405     0.36400
C1782       C  0.88396783  0.29551228  0.03888684     0.36400
N1783       N  0.84629319  0.20117827  0.44577369    -0.38500
N1784       N  0.89009634  0.31290446  0.05344723    -0.38500
N1785       N  0.93351687  0.19956497  0.44519106    -0.37900
N1786       N  0.80238055  0.30917233  0.05811870    -0.37900
C1787       C  0.58727593  0.24838569  0.99700468    -0.04600
C1788       C  0.60170222  0.27226707  0.98227187    -0.01700
C1789       C  0.63344443  0.27281432  0.98149920     0.03300
C1790       C  0.65259910  0.24925829  0.99523570    -0.04600
C1791       C  0.63809114  0.22496206  0.00935611    -0.01700
C1792       C  0.60633942  0.22456899  0.01012178     0.03300
C1793       C  0.58364070  0.29682072  0.96781140     0.37900
C1794       C  0.65557007  0.20004644  0.02386176     0.37900
C1795       C  0.59438465  0.20084512  0.52411906     0.36400
C1796       C  0.64649382  0.29759598  0.96546420     0.36400
N1797       N  0.58413884  0.18035850  0.53557865    -0.38500
N1798       N  0.65681080  0.31741042  0.95253284    -0.38500
N1799       N  0.67047657  0.18067364  0.53423464    -0.37900
N1800       N  0.56930669  0.31639755  0.95613417    -0.37900
C1801       C  0.75151059  0.49835830  0.34706278    -0.04600
C1802       C  0.72594753  0.51419364  0.36788099    -0.01700
C1803       C  0.72512182  0.51374837  0.39966021     0.03300
C1804       C  0.74963454  0.49761990  0.41257055    -0.04600
C1805       C  0.77463331  0.48081342  0.39216534    -0.01700
C1806       C  0.77551954  0.48101428  0.36032626     0.03300
C1807       C  0.69958827  0.53092867  0.35703225     0.37900
C1808       C  0.80001913  0.46316838  0.40394960     0.37900
C1809       C  0.80086525  0.46172732  0.34147132     0.36400
C1810       C  0.69766731  0.52851031  0.41945699     0.36400
N1811       N  0.82097707  0.44602471  0.32652293    -0.38500
N1812       N  0.67538102  0.53994994  0.43501750    -0.38500
N1813       N  0.81841422  0.04072499  0.38476309    -0.37900
N1814       N  0.67828097  0.54418223  0.34868901    -0.37900
C1815       C  0.75601834  0.00393064  0.07796854    -0.04600
C1816       C  0.72852257  0.01394317  0.09894739    -0.01700
C1817       C  0.72739093  0.01345742  0.13081654     0.03300
C1818       C  0.75401586  0.00341928  0.14353152    -0.04600
C1819       C  0.78109160  0.49447764  0.13859222    -0.01700
C1820       C  0.78057490  0.49305086  0.10716449     0.03300
C1821       C  0.70070374  0.02419568  0.08764438     0.37900
C1822       C  0.81044221  0.49085774  0.14717665     0.37900
C1823       C  0.80900476  0.48777128  0.08544668     0.36400
C1824       C  0.69812175  0.02340207  0.15036164     0.36400
N1825       N  0.83169665  0.48382066  0.06806402    -0.38500
N1826       N  0.67462024  0.03134239  0.16581190    -0.38500
N1827       N  0.83403963  0.48818131  0.15371217    -0.37900
N1828       N  0.67851045  0.03234896  0.07857660    -0.36100
C1829       C  0.00582594  0.33463198  0.25385640    -0.04600
C1830       C  0.48361940  0.35410360  0.27452731    -0.01700
C1831       C  0.48345344  0.38607341  0.27519340     0.03300
C1832       C  0.50474643  0.40007438  0.25439509    -0.04600
C1833       C  0.02746457  0.38044246  0.23432459    -0.01700
C1834       C  0.02847624  0.34824271  0.23461483     0.03300
C1835       C  0.46009677  0.34171321  0.29524152     0.37900
C1836       C  0.05013150  0.39295930  0.21260845     0.37900
C1837       C  0.05395358  0.32910605  0.21561530     0.36400
C1838       C  0.46158653  0.40414805  0.29837250     0.36400
N1839       N  0.07446386  0.31399097  0.20057038    -0.38500
N1840       N  0.44418081  0.41831650  0.31703757    -0.38500
N1841       N  0.06814561  0.40275051  0.19504374    -0.37900
N1842       N  0.44129036  0.33203046  0.31187165    -0.37900
C1843       C  0.50886904  0.08356900  0.25284886    -0.04600
C1844       C  0.52838672  0.09750677  0.23016708    -0.01700
C1845       C  0.52918462  0.12932625  0.23075550     0.03300
C1846       C  0.00908366  0.14887622  0.25294867    -0.04600
C1847       C  0.98947528  0.13478522  0.27564381    -0.01700
C1848       C  0.99006723  0.10267840  0.27601001     0.03300
C1849       C  0.54735144  0.07943276  0.20535577     0.37900
C1850       C  0.96813789  0.15297063  0.29908536     0.37900
C1851       C  0.97168207  0.08931556  0.30126195     0.36400
C1852       C  0.55192788  0.14134545  0.20872254     0.36400
N1853       N  0.95710068  0.07874732  0.32148905    -0.38500
N1854       N  0.57034668  0.15068241  0.19126180    -0.38500
N1855       N  0.95103643  0.16717638  0.31792777    -0.37900
N1856       N  0.56242840  0.06522520  0.18540028    -0.37900
C1857       C  0.50825116  0.40244156  0.48328141    -0.04600
C1858       C  0.51955840  0.38020953  0.00503212    -0.01700
C1859       C  0.51211798  0.35092182  0.00974282     0.03300
C1860       C  0.49502134  0.34270244  0.49110309    -0.04600
C1861       C  0.98427988  0.36235903  0.46874058    -0.01700
C1862       C  0.99061488  0.39225582  0.46499981     0.03300
C1863       C  0.53775575  0.39019874  0.02389214     0.37900
C1864       C  0.96678667  0.35199803  0.44944483     0.37900
C1865       C  0.97939458  0.41230998  0.44192702     0.36400
C1866       C  0.52434564  0.33090914  0.03236499     0.36400
N1867       N  0.97016682  0.42832369  0.42369497    -0.38500
N1868       N  0.53417529  0.31519505  0.05046685    -0.38500
N1869       N  0.95293972  0.34371508  0.43396990    -0.37900
N1870       N  0.55239717  0.39794038  0.03887659    -0.37900
C1871       C  0.00272319  0.15866486  0.00967546    -0.04600
C1872       C  0.00165943  0.14258777  0.48425903    -0.01700
C1873       C  0.99831135  0.11194861  0.49003334     0.03300
C1874       C  0.99575420  0.09699221  0.02110470    -0.04600
C1875       C  0.50265596  0.11350456  0.04318729    -0.01700
C1876       C  0.50619189  0.14419811  0.03762825     0.03300
C1877       C  0.00114445  0.15501300  0.45429729     0.37900
C1878       C  0.50543575  0.09898727  0.07199559     0.37900
C1879       C  0.51407042  0.16028185  0.06081177     0.36400
C1880       C  0.99300512  0.09393430  0.46672610     0.36400
N1881       N  0.52037443  0.17292273  0.07941495    -0.38500
N1882       N  0.98868784  0.07957104  0.44824149    -0.38500
N1883       N  0.50767568  0.08737799  0.09493302    -0.37900
N1884       N  0.00108072  0.16446560  0.43019435    -0.37900
C1885       C  0.90419559  0.02574265  0.47177703    -0.04600
C1886       C  0.89159804  0.48129276  0.48588565    -0.01700
C1887       C  0.86140643  0.47721871  0.48947877     0.03300
C1888       C  0.84375670  0.01972770  0.47140232    -0.04600
C1889       C  0.84800901  0.04168156  0.98871827    -0.01700
C1890       C  0.87791761  0.04611088  0.98706505     0.03300
C1891       C  0.91331779  0.45887554  0.49887286     0.37900
C1892       C  0.82357911  0.05812546  0.01109224     0.37900
C1893       C  0.88254472  0.07135087  0.00335991     0.36400
C1894       C  0.85310931  0.44965369  0.50472294     0.36400
N1895       N  0.88597828  0.09173494  0.01611424    -0.38500
N1896       N  0.84667923  0.42761467  0.51681380    -0.38500
N1897       N  0.80430905  0.07095297  0.02920908    -0.37900
N1898       N  0.93024270  0.44094846  0.50953493    -0.37900
C1899       C  0.60003676  0.48808469  0.03289492    -0.04600
C1900       C  0.62018816  0.46840805  0.54385091    -0.01700
C1901       C  0.65077219  0.47109379  0.54133168     0.03300
C1902       C  0.66090430  0.49438867  0.02770767    -0.04600
C1903       C  0.64656014  0.01584373  0.99977170    -0.01700
C1904       C  0.61603302  0.01242132  0.00761164     0.03300
C1905       C  0.60977563  0.44102143  0.55717735     0.37900
C1906       C  0.65337722  0.04325753  0.98306851     0.37900
C1907       C  0.59263592  0.03570444  0.99792063     0.36400
C1908       C  0.67130353  0.44660051  0.55332546     0.36400
N1909       N  0.57445744  0.05449435  0.98990219    -0.38500
N1910       N  0.68754685  0.42694086  0.56285573    -0.38500
N1911       N  0.65860130  0.06526458  0.97003322    -0.37900
N1912       N  0.60155981  0.41916665  0.56781448    -0.37900
C1913       C  0.03207473  0.48789042  0.32832778    -0.04600
C1914       C  0.04486218  0.00622495  0.34340557    -0.01700
C1915       C  0.04862520  0.00412171  0.37322743     0.03300
C1916       C  0.04128587  0.48659964  0.38714264    -0.04600
C1917       C  0.54301794  0.45898952  0.37276406    -0.01700
C1918       C  0.53834496  0.45963339  0.34323848     0.03300
C1919       C  0.04737045  0.03430942  0.32619878     0.37900
C1920       C  0.54768503  0.43007313  0.38902238     0.37900
C1921       C  0.53866981  0.43137504  0.32871018     0.36400
C1922       C  0.05502548  0.02998217  0.38715420     0.36400
N1923       N  0.53903220  0.40883208  0.31707763    -0.38500
N1924       N  0.06033216  0.05040748  0.39839898    -0.38500
N1925       N  0.55150203  0.40702423  0.40199983    -0.37900
N1926       N  0.04961962  0.05665359  0.31244059    -0.37900
C1927       C  0.46837837  0.00413529  0.11846760    -0.04600
C1928       C  0.45679990  0.02902333  0.13796863    -0.01700
C1929       C  0.46146323  0.02613654  0.16761371     0.03300
C1930       C  0.47726327  0.99822026  0.17760104    -0.04600
C1931       C  0.97466471  0.47345472  0.15911959    -0.01700
C1932       C  0.97015138  0.47603961  0.12954728     0.03300
C1933       C  0.44207890  0.05808170  0.12694730     0.37900
C1934       C  0.98658213  0.44376481  0.17111806     0.37900
C1935       C  0.97759340  0.44898617  0.11109878     0.36400
C1936       C  0.45232156  0.05249676  0.18695957     0.36400
N1937       N  0.98352788  0.42745903  0.09637101    -0.38500
N1938       N  0.44520848  0.07354617  0.20237133    -0.38500
N1939       N  0.99587622  0.41988284  0.18042134    -0.37900
N1940       N  0.43028684  0.08120858  0.11807099    -0.37900
O1941       O  0.56910648  0.46097898  0.01345331    -0.80100
O1942       O  0.95302120  0.49492839  0.96409401    -0.64800
O1943       O  0.53176713  0.99568239  0.98728244    -1.11400
C1944       C  0.47154218  0.01395326  0.58494172     1.06800
O1945       O  0.94268093  0.04243363  0.49155307    -0.78000
O1946       O  0.96489100  0.06567703  0.53240611    -0.65600
Ni1947     Ni  0.56250266  0.46877953  0.97346695     1.34900
C1948       C  0.99256723  0.06810492  0.52504043     0.85500
O1949       O  0.00887547  0.49605965  0.93348331    -0.78600
O1950       O  0.55807290  0.47464697  0.93241478    -0.88800
C1951       C  0.93377441  0.02197424  0.97699444     0.85100
O1952       O  0.54382638  0.43379566  0.97754600    -0.67000
O1953       O  0.94835384  0.02178295  0.57282615    -0.86300
C1954       C  0.51666770  0.43082236  0.97818725     0.85900
C1955       C  0.03593263  0.48566930  0.91973094     1.07500
H1956       H  0.96919581  0.47931964  0.52297955     0.39300
O1957       O  0.97309434  0.49944628  0.51653153    -1.09000
O1958       O  0.51437643  0.04568166  0.52170564    -0.65600
Ni1959     Ni  0.51734344  0.00271846  0.52944513     1.26300
O1960       O  0.99530241  0.45318794  0.97638180    -0.65900
O1961       O  0.49922884  0.00892751  0.57071366    -0.78200
C1962       C  0.56996223  0.48712610  0.52958871     0.85300
O1963       O  0.55631118  0.00386154  0.53784610    -0.65300
Ni1964     Ni  0.94559986  0.03170096  0.53203615     1.27400
Ni1965     Ni  0.99035630  0.49682484  0.97473712     1.26100
H1966       H  0.53829078  0.01428656  0.97902916     0.39800
O1967       O  0.54088118  0.48767384  0.77426192    -0.73700
O1968       O  0.51229485  0.99430559  0.70502058    -0.73700
O1969       O  0.52749585  0.03384004  0.74039065    -0.73700
O1970       O  0.52600293  0.44895208  0.73823366    -0.73800
O1971       O  0.97878661  0.45604167  0.76440343    -0.73700
O1972       O  0.97983404  0.04333355  0.76545178    -0.73700
O1973       O  0.96428042  0.00453091  0.73017817    -0.73700
O1974       O  0.99339807  0.49472681  0.80080638    -0.73700
Ni1975     Ni  0.52852238  0.98994415  0.74045872     1.25400
Ni1976     Ni  0.97585718  0.49994040  0.76590506     1.25400
C1977       C  0.52206170  0.48980574  0.79931528     0.88500
C1978       C  0.48360537  0.00037853  0.70565945     0.88500
C1979       C  0.50384195  0.05307092  0.75282867     0.88500
C1980       C  0.50269338  0.43775733  0.75138822     0.88600
O1981       O  0.78895630  0.03657624  0.97683276    -0.73700
O1982       O  0.70781663  0.02350862  0.99623505    -0.73700
O1983       O  0.74992532  0.02941875  0.52896449    -0.73700
O1984       O  0.74736026  0.03007963  0.94304497    -0.73800
O1985       O  0.75438580  0.47040120  0.96231245    -0.73700
O1986       O  0.75784859  0.47417981  0.54800986    -0.73700
O1987       O  0.71351444  0.47269761  0.51562869    -0.73700
O1988       O  0.79798494  0.47417561  0.49378855    -0.73700
Ni1989     Ni  0.74773567  0.03162271  0.98632257     1.25400
Ni1990     Ni  0.75625525  0.47168644  0.50501577     1.25400
C1991       C  0.80636209  0.49737050  0.98993400     0.88500
C1992       C  0.69421574  0.49791119  0.51929093     0.88500
C1993       C  0.75292623  0.49981632  0.56192791     0.88500
C1994       C  0.74874788  0.49577291  0.94745971     0.88600
O1995       O  0.54281956  0.24708998  0.97389721    -0.73700
O1996       O  0.95495021  0.25084539  0.97617695    -0.73700
O1997       O  0.49415864  0.29251056  0.97104069    -0.73700
O1998       O  0.50454439  0.20509275  0.97943278    -0.73800
O1999       O  0.99497403  0.21121264  0.52706087    -0.73700
O2000       O  0.98611030  0.29767488  0.51958630    -0.73700
O2001       O  0.94634889  0.25752804  0.52380844    -0.73700
O2002       O  0.53478871  0.25134750  0.52217500    -0.73700
Ni2003     Ni  0.49929197  0.24872755  0.97341938     1.25400
Ni2004     Ni  0.99013351  0.25456587  0.52486024     1.25400
C2005       C  0.55431564  0.24987718  0.49706681     0.88500
C2006       C  0.93663140  0.25560836  0.49940957     0.88500
C2007       C  0.99118884  0.31019757  0.49367877     0.88500
C2008       C  0.00237209  0.19463177  0.50380307     0.88600
O2009       O  0.55376134  0.23649285  0.74374174    -0.73700
O2010       O  0.98130094  0.25141479  0.71229092    -0.73700
O2011       O  0.51664878  0.28753744  0.72805585    -0.73700
O2012       O  0.51768448  0.20021614  0.72886091    -0.73800
O2013       O  0.99120486  0.20351588  0.77522590    -0.73700
O2014       O  0.98967912  0.29077957  0.77403160    -0.73700
O2015       O  0.95393898  0.25446641  0.75889170    -0.73700
O2016       O  0.52678699  0.24006660  0.79048300    -0.73700
Ni2017     Ni  0.51833792  0.24371733  0.72669810     1.25400
Ni2018     Ni  0.98935864  0.24733882  0.77624628     1.25400
C2019       C  0.55229136  0.23668642  0.77196396     0.88500
C2020       C  0.95570557  0.25516912  0.73054971     0.88500
C2021       C  0.00315755  0.30399133  0.75086723     0.88500
C2022       C  0.00454356  0.18730022  0.75212838     0.88600
O2023       O  0.82822121  0.23934223  0.69704462    -0.80100
O2024       O  0.68860441  0.24239635  0.75391132    -0.64800
O2025       O  0.76666382  0.25933554  0.72109352    -1.11400
C2026       C  0.77743848  0.26037938  0.81881015     1.06800
O2027       O  0.67931083  0.26347089  0.79876944    -0.78000
O2028       O  0.71714786  0.30570810  0.77978453    -0.65600
Ni2029     Ni  0.79003123  0.23403832  0.68876137     1.34900
C2030       C  0.74151585  0.31560246  0.76859318     0.85500
O2031       O  0.71499227  0.25882862  0.70030019    -0.78600
O2032       O  0.75484740  0.22766911  0.67477590    -0.88800
C2033       C  0.67125223  0.25008651  0.77872086     0.85100
O2034       O  0.78978360  0.19780814  0.71309114    -0.67000
O2035       O  0.75257642  0.27897283  0.81873953    -0.86300
C2036       C  0.76540675  0.18811981  0.72451409     0.85900
C2037       C  0.72918053  0.24544037  0.67648999     1.07500
H2038       H  0.74310695  0.22337101  0.78096046     0.39300
O2039       O  0.74100955  0.24450960  0.77424027    -1.09000
O2040       O  0.76767827  0.29779353  0.76362464    -0.65600
Ni2041     Ni  0.78010003  0.25353536  0.75799329     1.26300
O2042       O  0.73951217  0.20629244  0.73086725    -0.65900
O2043       O  0.79228104  0.24620534  0.79555101    -0.78200
C2044       C  0.83645339  0.25295146  0.71679579     0.85300
O2045       O  0.81894044  0.26189540  0.74121556    -0.65300
Ni2046     Ni  0.71743595  0.27065914  0.80594041     1.27400
Ni2047     Ni  0.72754473  0.25059260  0.73735324     1.26100
H2048       H  0.76442702  0.28038936  0.71446576     0.39800
O2049       O  0.73844759  0.22904698  0.54126767    -0.73700
O2050       O  0.76256749  0.22529368  0.95783937    -0.73700
O2051       O  0.79326742  0.22917030  0.50209509    -0.73700
O2052       O  0.70848929  0.22625572  0.49594417    -0.73800
O2053       O  0.69624628  0.27595601  0.99455975    -0.73700
O2054       O  0.78092247  0.27844705  0.00207542    -0.73700
O2055       O  0.75186265  0.27606730  0.95589695    -0.73700
O2056       O  0.72674352  0.27973008  0.53928854    -0.73700
Ni2057     Ni  0.75135452  0.22592882  0.49911122     1.25400
Ni2058     Ni  0.73818182  0.27896561  0.99817444     1.25400
C2059       C  0.72775071  0.25463967  0.55440367     0.88500
C2060       C  0.76294162  0.25038273  0.94292546     0.88500
C2061       C  0.80074116  0.25339208  0.00307844     0.88500
C2062       C  0.68859231  0.25111570  0.49425652     0.88600
O2063       O  0.72334926  0.46589456  0.76174031    -0.73700
O2064       O  0.73419806  0.05295111  0.73842032    -0.73700
O2065       O  0.72902366  0.01218882  0.69708776    -0.73700
O2066       O  0.72721176  0.50724856  0.80228482    -0.73800
O2067       O  0.77736879  0.49291969  0.79338650    -0.73700
O2068       O  0.77870882  0.99463354  0.68876627    -0.73700
O2069       O  0.78450977  0.03616566  0.72894746    -0.73700
O2070       O  0.77397016  0.45149055  0.75224815    -0.73700
Ni2071     Ni  0.72604892  0.50843866  0.75920805     1.25400
Ni2072     Ni  0.77949732  0.99401671  0.73194391     1.25400
C2073       C  0.74728426  0.44485487  0.75800780     0.88500
C2074       C  0.76137611  0.05822205  0.73305551     0.88500
C2075       C  0.75427113  0.00356614  0.67800209     0.88500
C2076       C  0.75198455  0.49945968  0.81270500     0.88600
C2077       C  0.76557154  0.09056534  0.73185493    -0.04600
C2078       C  0.77991791  0.10336558  0.70510460    -0.01700
C2079       C  0.77992035  0.13517325  0.70285094     0.03300
C2080       C  0.76672430  0.15431830  0.72780879    -0.04600
C2081       C  0.75371520  0.14103557  0.75504874    -0.01700
C2082       C  0.75286657  0.10941114  0.75691442     0.03300
C2083       C  0.79348643  0.08399972  0.67943767     0.37900
C2084       C  0.74117068  0.15949933  0.78144508     0.37900
C2085       C  0.73909569  0.09609790  0.78486963     0.36400
C2086       C  0.79157913  0.14844331  0.67411280     0.36400
N2087       N  0.72812352  0.08549467  0.80714693    -0.38500
N2088       N  0.80056663  0.15904334  0.65110943    -0.38500
N2089       N  0.73075774  0.17317049  0.80314149    -0.37900
N2090       N  0.80440449  0.06846442  0.65905368    -0.37900
C2091       C  0.74018211  0.34925895  0.76458340    -0.04600
C2092       C  0.72717598  0.36877378  0.78925488    -0.01700
C2093       C  0.72947563  0.40003316  0.78713105     0.03300
C2094       C  0.74413845  0.41224676  0.76016095    -0.04600
C2095       C  0.75635187  0.39312017  0.73529867    -0.01700
C2096       C  0.75443410  0.36177895  0.73744021     0.03300
C2097       C  0.71271458  0.35644190  0.81742934     0.37900
C2098       C  0.77087564  0.40583170  0.70734514     0.37900
C2099       C  0.76685208  0.34293628  0.71128909     0.36400
C2100       C  0.71859825  0.41913393  0.81334705     0.36400
N2101       N  0.77711832  0.32910560  0.68966362    -0.38500
N2102       N  0.71024873  0.43420286  0.83437928    -0.38500
N2103       N  0.78247625  0.41604610  0.68513291    -0.37900
N2104       N  0.70112753  0.34657575  0.83983988    -0.37900
C2105       C  0.71778717  0.25480912  0.58763193    -0.04600
C2106       C  0.71402907  0.22699171  0.60360900    -0.01700
C2107       C  0.71356476  0.22497121  0.63441544     0.03300
C2108       C  0.71652142  0.25049082  0.64937433    -0.04600
C2109       C  0.71478513  0.27938551  0.63500762    -0.01700
C2110       C  0.71501055  0.28175480  0.60412958     0.03300
C2111       C  0.71215942  0.19971079  0.58870008     0.37900
C2112       C  0.71580645  0.30611984  0.65134929     0.37900
C2113       C  0.71408265  0.31172148  0.58968918     0.36400
C2114       C  0.71207380  0.19607655  0.65058913     0.36400
N2115       N  0.71316995  0.33578022  0.57850680    -0.38500
N2116       N  0.71095579  0.17313495  0.66359385    -0.38500
N2117       N  0.71665832  0.32742348  0.66432799    -0.37900
N2118       N  0.71112736  0.17749386  0.57729300    -0.37900
C2119       C  0.78724480  0.25437370  0.84748607    -0.04600
C2120       C  0.78544663  0.22569251  0.86156374    -0.01700
C2121       C  0.77924090  0.22345967  0.89298914     0.03300
C2122       C  0.77612504  0.24995468  0.91021296    -0.04600
C2123       C  0.78466729  0.27677596  0.89542349    -0.01700
C2124       C  0.78917197  0.27924608  0.86411198     0.03300
C2125       C  0.78714911  0.19912332  0.84379406     0.37900
C2126       C  0.78868380  0.30200072  0.91207289     0.37900
C2127       C  0.79409760  0.30789025  0.84892811     0.36400
C2128       C  0.77442722  0.19426403  0.90695859     0.36400
N2129       N  0.79792382  0.33070840  0.83673872    -0.38500
N2130       N  0.77065056  0.17087405  0.91787127    -0.38500
N2131       N  0.79206411  0.32208526  0.92527090    -0.37900
N2132       N  0.78873157  0.17786998  0.82966940    -0.37900
C2133       C  0.64009613  0.24328711  0.78392629    -0.04600
C2134       C  0.63552782  0.21581877  0.77282841    -0.01700
C2135       C  0.60593974  0.21203193  0.77186296     0.03300
C2136       C  0.58083092  0.23523333  0.78249264    -0.04600
C2137       C  0.58487741  0.26055974  0.79740201    -0.01700
C2138       C  0.61455903  0.26498410  0.79760184     0.03300
C2139       C  0.66117623  0.19173504  0.76133491     0.37900
C2140       C  0.55865476  0.28332431  0.81042882     0.37900
C2141       C  0.61854239  0.29323875  0.80931599     0.36400
C2142       C  0.60136952  0.18455569  0.75915683     0.36400
N2143       N  0.62160266  0.31589758  0.81849505    -0.38500
N2144       N  0.59807778  0.16244502  0.74913589    -0.38500
N2145       N  0.53774001  0.30135547  0.82098824    -0.37900
N2146       N  0.68134096  0.17243714  0.75183484    -0.37900
C2147       C  0.92748749  0.25910933  0.71906641    -0.04600
C2148       C  0.90390379  0.28421816  0.72829269    -0.01700
C2149       C  0.87437101  0.28392770  0.72408126     0.03300
C2150       C  0.86824431  0.25769816  0.71209028    -0.04600
C2151       C  0.89279733  0.23459658  0.69909070    -0.01700
C2152       C  0.92259949  0.23570028  0.70213918     0.03300
C2153       C  0.90995877  0.30997200  0.74270409     0.37900
C2154       C  0.88748170  0.20842579  0.68474401     0.37900
C2155       C  0.94778865  0.21154407  0.68979025     0.36400
C2156       C  0.85027259  0.31035439  0.73264364     0.36400
N2157       N  0.96787779  0.19240732  0.67973928    -0.38500
N2158       N  0.83117242  0.33149412  0.73943094    -0.38500
N2159       N  0.88335509  0.18749437  0.67332300    -0.37900
N2160       N  0.91477358  0.33051603  0.75417202    -0.37900
C2161       C  0.83506770  0.25385963  0.00289981    -0.04600
C2162       C  0.84596787  0.27544663  0.51972723    -0.01700
C2163       C  0.87782267  0.27558925  0.51906454     0.03300
C2164       C  0.90041720  0.25423806  0.00161291    -0.04600
C2165       C  0.89094100  0.23453510  0.98326335    -0.01700
C2166       C  0.85920173  0.23428637  0.98397242     0.03300
C2167       C  0.82268309  0.29532235  0.54017167     0.37900
C2168       C  0.91399637  0.21352825  0.96375581     0.37900
C2169       C  0.85140613  0.21405078  0.96422811     0.36400
C2170       C  0.88564479  0.29698643  0.53756400     0.36400
N2171       N  0.84510080  0.19793937  0.94847325    -0.38500
N2172       N  0.89188653  0.31422085  0.55221409    -0.38500
N2173       N  0.93224450  0.19667906  0.94806456    -0.37900
N2174       N  0.80409896  0.31113641  0.55659648    -0.37900
C2175       C  0.58879746  0.24981331  0.49600824    -0.04600
C2176       C  0.60347903  0.27335124  0.48090518    -0.01700
C2177       C  0.63525225  0.27371687  0.48012521     0.03300
C2178       C  0.65425085  0.25020956  0.49408915    -0.04600
C2179       C  0.63951240  0.22619840  0.50852050    -0.01700
C2180       C  0.60762297  0.22618167  0.50961392     0.03300
C2181       C  0.58552572  0.29793354  0.46636682     0.37900
C2182       C  0.65691706  0.20109797  0.52286387     0.37900
C2183       C  0.59354896  0.19851438  0.02342874     0.36400
C2184       C  0.64845921  0.29832849  0.46393338     0.36400
N2185       N  0.58356753  0.17745250  0.03373024    -0.38500
N2186       N  0.65888038  0.31804195  0.45091894    -0.38500
N2187       N  0.66926049  0.17989316  0.03544999    -0.37900
N2188       N  0.57117810  0.31754372  0.45473911    -0.37900
C2189       C  0.75109192  0.49794564  0.84753921    -0.04600
C2190       C  0.72415564  0.50994622  0.86899576    -0.01700
C2191       C  0.72349100  0.50901541  0.90077307     0.03300
C2192       C  0.74937260  0.49584444  0.91310103    -0.04600
C2193       C  0.77593346  0.48292295  0.89211745    -0.01700
C2194       C  0.77686634  0.48393151  0.86024020     0.03300
C2195       C  0.69627622  0.52320768  0.85883733     0.37900
C2196       C  0.80294868  0.46876137  0.90339339     0.37900
C2197       C  0.80468867  0.46948160  0.84071018     0.36400
C2198       C  0.69517887  0.52054124  0.92113597     0.36400
N2199       N  0.82696086  0.45776267  0.82526297    -0.38500
N2200       N  0.67231690  0.52948809  0.93716611    -0.38500
N2201       N  0.82694013  0.02437962  0.88634091    -0.37900
N2202       N  0.67378807  0.53365797  0.85103910    -0.37900
C2203       C  0.75761226  0.00375822  0.57736489    -0.04600
C2204       C  0.72976972  0.01183838  0.59842776    -0.01700
C2205       C  0.72852595  0.01124350  0.63035115     0.03300
C2206       C  0.75540342  0.00378851  0.64305272    -0.04600
C2207       C  0.78111727  0.49466463  0.63880729    -0.01700
C2208       C  0.78083886  0.49409924  0.60721119     0.03300
C2209       C  0.70176237  0.02012956  0.58711580     0.37900
C2210       C  0.81039851  0.48897697  0.64778900     0.37900
C2211       C  0.80943205  0.48825365  0.58576608     0.36400
C2212       C  0.69887887  0.01818778  0.64997629     0.36400
N2213       N  0.83232521  0.48393596  0.56868784    -0.38500
N2214       N  0.67506120  0.02364551  0.66547828    -0.38500
N2215       N  0.83395329  0.48458958  0.65464899    -0.37900
N2216       N  0.67945828  0.02676590  0.57797817    -0.36100
C2217       C  0.00329117  0.33841271  0.75096719    -0.04600
C2218       C  0.48443431  0.35734456  0.77456691    -0.01700
C2219       C  0.48531480  0.38907990  0.77511987     0.03300
C2220       C  0.50351810  0.40334394  0.75156625    -0.04600
C2221       C  0.02250200  0.38461174  0.72811268    -0.01700
C2222       C  0.02259230  0.35259666  0.72805435     0.03300
C2223       C  0.46353491  0.34501045  0.79838030     0.37900
C2224       C  0.04161265  0.39794110  0.70342992     0.37900
C2225       C  0.04326964  0.33451264  0.70414414     0.36400
C2226       C  0.46834359  0.40666451  0.80111485     0.36400
N2227       N  0.05988230  0.32029369  0.68500645    -0.38500
N2228       N  0.45504466  0.42055051  0.82198442    -0.38500
N2229       N  0.05685084  0.40838901  0.68362821    -0.37900
N2230       N  0.44668229  0.33553000  0.81745823    -0.37900
C2231       C  0.50423062  0.08738144  0.75277114    -0.04600
C2232       C  0.52596784  0.10070413  0.73189510    -0.01700
C2233       C  0.52653792  0.13256405  0.73224938     0.03300
C2234       C  0.00459645  0.15288555  0.75246427    -0.04600
C2235       C  0.98266912  0.13959621  0.77318043    -0.01700
C2236       C  0.98309517  0.10749495  0.77382694     0.03300
C2237       C  0.54770339  0.08199436  0.70913250     0.37900
C2238       C  0.95869180  0.15882475  0.79372292     0.37900
C2239       C  0.96165775  0.09517416  0.79714511     0.36400
C2240       C  0.55058315  0.14423555  0.71162149     0.36400
N2241       N  0.94455351  0.08549926  0.81582489    -0.38500
N2242       N  0.56986970  0.15331374  0.69510130    -0.38500
N2243       N  0.93940351  0.17391385  0.81013956    -0.37900
N2244       N  0.56508733  0.06732988  0.69081522    -0.37900
C2245       C  0.50920873  0.39976811  0.98237999    -0.04600
C2246       C  0.51765005  0.38322693  0.50654995    -0.01700
C2247       C  0.51139534  0.35345224  0.51029281     0.03300
C2248       C  0.49422935  0.34073186  0.99174094    -0.04600
C2249       C  0.98338291  0.36048393  0.96949905    -0.01700
C2250       C  0.99085781  0.38989992  0.96480874     0.03300
C2251       C  0.53291845  0.39440933  0.52748704     0.37900
C2252       C  0.96416781  0.35081016  0.95160682     0.37900
C2253       C  0.98038457  0.40963138  0.94117182     0.36400
C2254       C  0.52329739  0.33360313  0.53319377     0.36400
N2255       N  0.97203271  0.42535136  0.92232574    -0.38500
N2256       N  0.53283905  0.31796992  0.55150150    -0.38500
N2257       N  0.94883015  0.34312896  0.93732350    -0.37900
N2258       N  0.54491878  0.40331623  0.54428911    -0.37900
C2259       C  0.00508536  0.16067275  0.50758167    -0.04600
C2260       C  0.99879248  0.14063742  0.98655500    -0.01700
C2261       C  0.99429477  0.11032310  0.99266267     0.03300
C2262       C  0.99927716  0.09887914  0.51861822    -0.04600
C2263       C  0.50504468  0.11570498  0.54115382    -0.01700
C2264       C  0.50840286  0.14637476  0.53564511     0.03300
C2265       C  0.99960093  0.15261428  0.95627880     0.37900
C2266       C  0.50694410  0.10147419  0.57026282     0.37900
C2267       C  0.51578961  0.16258708  0.55904762     0.36400
C2268       C  0.98739189  0.09294528  0.96978264     0.36400
N2269       N  0.52164840  0.17528211  0.57788000    -0.38500
N2270       N  0.98165967  0.07921444  0.95162423    -0.38500
N2271       N  0.50841805  0.09015779  0.59346642    -0.37900
N2272       N  0.00079261  0.16166006  0.93190385    -0.37900
C2273       C  0.90277533  0.02609511  0.96979836    -0.04600
C2274       C  0.89169530  0.47900722  0.98548017    -0.01700
C2275       C  0.86145562  0.47485405  0.98946969     0.03300
C2276       C  0.84234521  0.01942076  0.97081244    -0.04600
C2277       C  0.84952655  0.03779602  0.49321735    -0.01700
C2278       C  0.87946839  0.04125977  0.49318992     0.03300
C2279       C  0.91402966  0.45571793  0.99669745     0.37900
C2280       C  0.82493472  0.05114117  0.51721051     0.37900
C2281       C  0.88429918  0.06009173  0.51611207     0.36400
C2282       C  0.85353730  0.44692620  0.00421112     0.36400
N2283       N  0.88782455  0.07532854  0.53433200    -0.38500
N2284       N  0.84748657  0.42459598  0.01595874    -0.38500
N2285       N  0.80556239  0.06168141  0.53648833    -0.37900
N2286       N  0.93147840  0.43703713  0.00587753    -0.37900
C2287       C  0.59975437  0.49214153  0.53304307    -0.04600
C2288       C  0.62015114  0.46544847  0.04536522    -0.01700
C2289       C  0.65058290  0.46862677  0.04303681     0.03300
C2290       C  0.66110943  0.49739057  0.52720127    -0.04600
C2291       C  0.64895559  0.01389089  0.49524589    -0.01700
C2292       C  0.61816098  0.01158105  0.50411218     0.03300
C2293       C  0.60941371  0.43898420  0.06058610     0.37900
C2294       C  0.65698362  0.03808533  0.47416860     0.37900
C2295       C  0.59531148  0.03373266  0.49237785     0.36400
C2296       C  0.67088290  0.44555852  0.05689140     0.36400
N2297       N  0.57773061  0.05182497  0.48270391    -0.38500
N2298       N  0.68692039  0.42712447  0.06805638    -0.38500
N2299       N  0.66330210  0.05744551  0.45751100    -0.37900
N2300       N  0.60078768  0.41799582  0.07289347    -0.37900
C2301       C  0.03352281  0.48791335  0.82737755    -0.04600
C2302       C  0.03898462  0.01080322  0.84348710    -0.01700
C2303       C  0.04270126  0.00859730  0.87329608     0.03300
C2304       C  0.04100197  0.48591494  0.88692972    -0.04600
C2305       C  0.54403951  0.45839917  0.87176648    -0.01700
C2306       C  0.54006495  0.45935097  0.84193502     0.03300
C2307       C  0.04026705  0.03930390  0.82668915     0.37900
C2308       C  0.54942861  0.42923791  0.88750151     0.37900
C2309       C  0.54130752  0.43119161  0.82681118     0.36400
C2310       C  0.04663532  0.03514494  0.88803958     0.36400
N2311       N  0.54236032  0.40866643  0.81482142    -0.38500
N2312       N  0.04996662  0.05618693  0.89987087    -0.38500
N2313       N  0.55382062  0.40602737  0.90011021    -0.37900
N2314       N  0.04177318  0.06187340  0.81311544    -0.37900
C2315       C  0.46692443  0.00935103  0.61741904    -0.04600
C2316       C  0.45596083  0.03448931  0.63667175    -0.01700
C2317       C  0.45953523  0.03119136  0.66662495     0.03300
C2318       C  0.47339314  0.00259851  0.67713064    -0.04600
C2319       C  0.96888388  0.47931865  0.66094106    -0.01700
C2320       C  0.96521766  0.48142925  0.63108028     0.03300
C2321       C  0.44289622  0.06403408  0.62519804     0.37900
C2322       C  0.97344449  0.44965485  0.67585477     0.37900
C2323       C  0.96897329  0.45374395  0.61427056     0.36400
C2324       C  0.45147162  0.05767055  0.68580218     0.36400
N2325       N  0.97226604  0.43164459  0.60082489    -0.38500
N2326       N  0.44527381  0.07878366  0.70109897    -0.38500
N2327       N  0.97647186  0.42597874  0.68779969    -0.37900
N2328       N  0.43235305  0.08755820  0.61603067    -0.37900
O2329       O  0.57281312  0.95938778  0.51670385    -0.80100
O2330       O  0.95623100  0.99952499  0.46763548    -0.64800
O2331       O  0.52669550  0.50180701  0.48668491    -1.11400
C2332       C  0.46404697  0.50885184  0.08464553     1.06800
O2333       O  0.93023709  0.53498115  0.99133180    -0.78000
O2334       O  0.95511890  0.56218821  0.02725131    -0.65600
Ni2335     Ni  0.56653487  0.96282087  0.47658373     1.34900
C2336       C  0.98227249  0.56544068  0.02611249     0.85500
O2337       O  0.01375371  0.99176661  0.43557010    -0.78600
O2338       O  0.56145782  0.96517015  0.43571370    -0.88800
C2339       C  0.92919780  0.51517694  0.47438313     0.85100
O2340       O  0.54373680  0.93106545  0.48561343    -0.67000
O2341       O  0.94143175  0.52018473  0.07238008    -0.86300
C2342       C  0.51605472  0.93027044  0.48613549     0.85900
C2343       C  0.03999458  0.97785165  0.42249204     1.07500
H2344       H  0.97367982  0.97825356  0.02670639     0.39300
O2345       O  0.97865231  0.99777086  0.01932681    -1.09000
O2346       O  0.50408789  0.54344789  0.02768188    -0.65600
Ni2347     Ni  0.50943387  0.49976844  0.02921357     1.26300
O2348       O  0.99655368  0.95348391  0.48157581    -0.65900
O2349       O  0.49119587  0.50010708  0.07035976    -0.78200
C2350       C  0.57718378  0.98064710  0.02696247     0.85300
O2351       O  0.54675427  0.50176444  0.03977454    -0.65300
Ni2352     Ni  0.93688839  0.52691150  0.03123790     1.27400
Ni2353     Ni  0.99579390  0.99657864  0.47679050     1.26100
H2354       H  0.53212109  0.52125612  0.47969759     0.39800
O2355       O  0.54608576  0.98233511  0.27787379    -0.73700
O2356       O  0.50829668  0.49348224  0.20362833    -0.73700
O2357       O  0.52148174  0.53425908  0.23920694    -0.73700
O2358       O  0.52981899  0.94303925  0.24357476    -0.73800
O2359       O  0.98184728  0.95326141  0.26829302    -0.73700
O2360       O  0.97409379  0.54063511  0.26547056    -0.73700
O2361       O  0.96045185  0.50050178  0.22995958    -0.73700
O2362       O  0.99792244  0.99180681  0.30346169    -0.73700
Ni2363     Ni  0.52547610  0.49015784  0.23870832     1.25400
Ni2364     Ni  0.98136962  0.99676600  0.26797315     1.25400
C2365       C  0.52680078  0.98541227  0.30254772     0.88500
C2366       C  0.47947760  0.49792612  0.20489138     0.88500
C2367       C  0.49724157  0.55214816  0.25242375     0.88500
C2368       C  0.50544986  0.93347036  0.25660646     0.88600
O2369       O  0.78742655  0.52508813  0.49306340    -0.73700
O2370       O  0.70311224  0.52353645  0.51535285    -0.73700
O2371       O  0.74659266  0.52225608  0.04745551    -0.73700
O2372       O  0.74328198  0.52358454  0.46110458    -0.73800
O2373       O  0.76565645  0.97997969  0.44111604    -0.73700
O2374       O  0.76555730  0.97924450  0.02842397    -0.73700
O2375       O  0.72407628  0.97312404  0.99419861    -0.73700
O2376       O  0.80632502  0.98615140  0.97627765    -0.73700
Ni2377     Ni  0.74487863  0.52605584  0.50403855     1.25400
Ni2378     Ni  0.76582736  0.97780489  0.98503908     1.25400
C2379       C  0.81258855  0.01403142  0.47376061     0.88500
C2380       C  0.70228347  0.99640863  0.99879022     0.88500
C2381       C  0.75694393  0.00425413  0.04357728     0.88500
C2382       C  0.75684924  0.00519837  0.42720247     0.88600
O2383       O  0.53899136  0.74971416  0.48193553    -0.73700
O2384       O  0.95135278  0.75317339  0.48324074    -0.73700
O2385       O  0.49012451  0.79486240  0.48019214    -0.73700
O2386       O  0.50075192  0.70767741  0.48515805    -0.73800
O2387       O  0.99467039  0.70671755  0.03229820    -0.73700
O2388       O  0.98595538  0.79343308  0.02515964    -0.73700
O2389       O  0.94648075  0.75275382  0.02857814    -0.73700
O2390       O  0.53461925  0.74716306  0.02818537    -0.73700
Ni2391     Ni  0.49557726  0.75126753  0.48094893     1.25400
Ni2392     Ni  0.99008356  0.75016024  0.03023538     1.25400
C2393       C  0.55431805  0.74599282  0.00318441     0.88500
C2394       C  0.93696005  0.75111017  0.00400129     0.88500
C2395       C  0.99128563  0.80606831  0.99930138     0.88500
C2396       C  0.00082899  0.69055013  0.00880996     0.88600
O2397       O  0.54350420  0.73570185  0.24702579    -0.73700
O2398       O  0.97140506  0.75087579  0.21524145    -0.73700
O2399       O  0.50727279  0.78675123  0.23126425    -0.73700
O2400       O  0.50757920  0.69981033  0.23175837    -0.73800
O2401       O  0.98076091  0.70258957  0.27797778    -0.73700
O2402       O  0.98007481  0.78973362  0.27758848    -0.73700
O2403       O  0.94385426  0.75390827  0.26180233    -0.73700
O2404       O  0.51622367  0.73910113  0.29370559    -0.73700
Ni2405     Ni  0.50834520  0.74312702  0.22971656     1.25400
Ni2406     Ni  0.97908870  0.74639659  0.27936692     1.25400
C2407       C  0.54172967  0.73598070  0.27527900     0.88500
C2408       C  0.94578116  0.75441771  0.23346159     0.88500
C2409       C  0.99463193  0.80258989  0.25479697     0.88500
C2410       C  0.99455837  0.68649680  0.25491700     0.88600
O2411       O  0.81792646  0.74005639  0.19976337    -0.80100
O2412       O  0.67893092  0.73963206  0.25668404    -0.64800
O2413       O  0.75598284  0.75857959  0.22208061    -1.11400
C2414       C  0.76183721  0.77185341  0.31966355     1.06800
O2415       O  0.66682216  0.77019320  0.29591150    -0.78000
O2416       O  0.70548098  0.81031134  0.27234411    -0.65600
Ni2417     Ni  0.78088186  0.73099308  0.19231268     1.34900
C2418       C  0.73008162  0.81973304  0.26108235     0.85500
O2419       O  0.70551495  0.75095416  0.20162855    -0.78600
O2420       O  0.74703060  0.71976261  0.17942393    -0.88800
C2421       C  0.66018438  0.75175213  0.27917426     0.85100
O2422       O  0.78210415  0.69775513  0.22034549    -0.67000
O2423       O  0.73791848  0.79042655  0.31610217    -0.86300
C2424       C  0.75852258  0.68720223  0.23268072     0.85900
C2425       C  0.72064606  0.73549305  0.17940260     1.07500
H2426       H  0.73090333  0.72930093  0.28605016     0.39300
O2427       O  0.72904991  0.74916844  0.27636838    -1.09000
O2428       O  0.75612055  0.80221793  0.26003758    -0.65600
Ni2429     Ni  0.76823556  0.75760389  0.25972472     1.26300
O2430       O  0.73185231  0.70422303  0.23754098    -0.65900
O2431       O  0.77828541  0.75555700  0.29830490    -0.78200
C2432       C  0.82580095  0.75407357  0.21942491     0.85300
O2433       O  0.80774122  0.76444914  0.24306958    -0.65300
Ni2434     Ni  0.70391893  0.77951745  0.30334701     1.27400
Ni2435     Ni  0.71725028  0.74882182  0.23909318     1.26100
H2436       H  0.75299560  0.77893237  0.21343798     0.39800
O2437       O  0.74069760  0.72042885  0.04115508    -0.73700
O2438       O  0.75704380  0.73237756  0.45866795    -0.73700
O2439       O  0.79442475  0.72427729  0.00106928    -0.73700
O2440       O  0.70861171  0.72298831  0.99734694    -0.73800
O2441       O  0.69257042  0.77903013  0.50219564    -0.73700
O2442       O  0.77843640  0.77789974  0.50758662    -0.73700
O2443       O  0.74637372  0.78281764  0.46243833    -0.73700
O2444       O  0.72890536  0.77095246  0.04428855    -0.73700
Ni2445     Ni  0.75198005  0.72186184  0.99894354     1.25400
Ni2446     Ni  0.73513844  0.78021157  0.50498289     1.25400
C2447       C  0.72950287  0.74443989  0.05668690     0.88500
C2448       C  0.75560195  0.75894830  0.44627686     0.88500
C2449       C  0.79805926  0.75246104  0.50667898     0.88500
C2450       C  0.68846297  0.74808382  0.99870130     0.88600
O2451       O  0.71882249  0.96997129  0.24307889    -0.73700
O2452       O  0.73289381  0.54983987  0.25623695    -0.73700
O2453       O  0.72894113  0.50815796  0.21519648    -0.73700
O2454       O  0.72582771  0.00937770  0.28512831    -0.73800
O2455       O  0.77589362  0.99277155  0.27594221    -0.73700
O2456       O  0.77905812  0.49358830  0.20580174    -0.73700
O2457       O  0.78343515  0.53525049  0.24675767    -0.73700
O2458       O  0.76868761  0.95166410  0.23544939    -0.73700
Ni2459     Ni  0.72485323  0.01139949  0.24159662     1.25400
Ni2460     Ni  0.78053296  0.49259229  0.24903478     1.25400
C2461       C  0.74113505  0.94719056  0.23975927     0.88500
C2462       C  0.75961616  0.55649489  0.25059033     0.88500
C2463       C  0.75398855  0.50078699  0.19570194     0.88500
C2464       C  0.75088449  0.00135932  0.29518208     0.88600
C2465       C  0.76274800  0.58938213  0.24785827    -0.04600
C2466       C  0.78087589  0.60033671  0.22215341    -0.01700
C2467       C  0.78037516  0.63213622  0.21772491     0.03300
C2468       C  0.76186529  0.65345467  0.23915072    -0.04600
C2469       C  0.74567836  0.64213885  0.26591596    -0.01700
C2470       C  0.74633340  0.61032861  0.27027505     0.03300
C2471       C  0.79929239  0.57902119  0.19959842     0.37900
C2472       C  0.72868842  0.66295002  0.28946769     0.37900
C2473       C  0.73116971  0.59904427  0.29857152     0.36400
C2474       C  0.79786614  0.64276057  0.19022817     0.36400
N2475       N  0.71938499  0.59035756  0.32144902    -0.38500
N2476       N  0.81188796  0.65112839  0.16830885    -0.38500
N2477       N  0.71483566  0.67890435  0.30867836    -0.37900
N2478       N  0.81414769  0.56209160  0.18164442    -0.37900
C2479       C  0.72902219  0.85266207  0.25149529    -0.04600
C2480       C  0.70726193  0.87627929  0.26765144    -0.01700
C2481       C  0.70955803  0.90732716  0.26179459     0.03300
C2482       C  0.73499089  0.91517073  0.24148507    -0.04600
C2483       C  0.75473333  0.89196738  0.22311297    -0.01700
C2484       C  0.75127515  0.86104109  0.22758725     0.03300
C2485       C  0.68310118  0.86897463  0.29139840     0.37900
C2486       C  0.77770364  0.90004279  0.19852484     0.37900
C2487       C  0.76997870  0.83818899  0.20670219     0.36400
C2488       C  0.68534179  0.93098021  0.27666490     0.36400
N2489       N  0.78502565  0.82053017  0.18952731    -0.38500
N2490       N  0.66543982  0.94967975  0.28789957    -0.38500
N2491       N  0.79586332  0.90648134  0.17877486    -0.37900
N2492       N  0.66381660  0.86331480  0.31039531    -0.37900
C2493       C  0.71737617  0.74131512  0.08939204    -0.04600
C2494       C  0.71980991  0.71191939  0.10369537    -0.01700
C2495       C  0.71544202  0.70969718  0.13494495     0.03300
C2496       C  0.70878035  0.73642398  0.15181510    -0.04600
C2497       C  0.69915842  0.76494943  0.13849486    -0.01700
C2498       C  0.70362151  0.76757243  0.10715399     0.03300
C2499       C  0.72763782  0.68372501  0.08694193     0.37900
C2500       C  0.68647457  0.79187337  0.15677274     0.37900
C2501       C  0.69451109  0.79742861  0.09377096     0.36400
C2502       C  0.71925935  0.67994410  0.14993028     0.36400
N2503       N  0.68715253  0.82130074  0.08329565    -0.38500
N2504       N  0.72218892  0.65628527  0.16194805    -0.38500
N2505       N  0.67601397  0.81332781  0.17126817    -0.37900
N2506       N  0.73383901  0.66112902  0.07376805    -0.37900
C2507       C  0.76867256  0.76811791  0.34993356    -0.04600
C2508       C  0.77198783  0.73877088  0.36347157    -0.01700
C2509       C  0.77043861  0.73555144  0.39452803     0.03300
C2510       C  0.76367664  0.76197046  0.41278605    -0.04600
C2511       C  0.76292760  0.79131962  0.39843343    -0.01700
C2512       C  0.76576728  0.79414729  0.36716615     0.03300
C2513       C  0.77399059  0.71186125  0.34597901     0.37900
C2514       C  0.75835472  0.81912073  0.41529773     0.37900
C2515       C  0.76463774  0.82413093  0.35262492     0.36400
C2516       C  0.77482683  0.70469226  0.40715087     0.36400
N2517       N  0.76369977  0.84793412  0.34091155    -0.38500
N2518       N  0.77839825  0.67999175  0.41692929    -0.38500
N2519       N  0.75452514  0.84152733  0.42841839    -0.37900
N2520       N  0.77526418  0.69041901  0.33222797    -0.37900
C2521       C  0.62904382  0.74461656  0.28547944    -0.04600
C2522       C  0.62439843  0.71598983  0.27688697    -0.01700
C2523       C  0.59475441  0.71159065  0.27705589     0.03300
C2524       C  0.56984232  0.73543240  0.28595178    -0.04600
C2525       C  0.57383129  0.76214183  0.29852316    -0.01700
C2526       C  0.60343426  0.76689067  0.29823881     0.03300
C2527       C  0.64985467  0.69116355  0.26699508     0.37900
C2528       C  0.54765106  0.78597856  0.30933486     0.37900
C2529       C  0.60704253  0.79573138  0.30908678     0.36400
C2530       C  0.58975118  0.68292657  0.26708284     0.36400
N2531       N  0.60965923  0.81876116  0.31785911    -0.38500
N2532       N  0.58569556  0.66005218  0.25930514    -0.38500
N2533       N  0.52691112  0.80503175  0.31804051    -0.37900
N2534       N  0.66984575  0.67120736  0.25877966    -0.37900
C2535       C  0.91768368  0.75754419  0.22201889    -0.04600
C2536       C  0.89518118  0.78408868  0.22826918    -0.01700
C2537       C  0.86525328  0.78393357  0.22521766     0.03300
C2538       C  0.85798821  0.75711085  0.21559399    -0.04600
C2539       C  0.88158456  0.73174875  0.20590857    -0.01700
C2540       C  0.91149203  0.73207323  0.20912219     0.03300
C2541       C  0.90279995  0.81142243  0.23825966     0.37900
C2542       C  0.87493462  0.70415117  0.19528437     0.37900
C2543       C  0.93534476  0.70526208  0.20135050     0.36400
C2544       C  0.84192791  0.81105353  0.23322955     0.36400
N2545       N  0.95429052  0.68387368  0.19511742    -0.38500
N2546       N  0.82370466  0.83282996  0.24009845    -0.38500
N2547       N  0.86972287  0.68209575  0.18687190    -0.37900
N2548       N  0.90870787  0.83347958  0.24584685    -0.37900
C2549       C  0.83225896  0.75242520  0.50747523    -0.04600
C2550       C  0.84672245  0.75848956  0.02938244    -0.01700
C2551       C  0.87837678  0.75843193  0.02976457     0.03300
C2552       C  0.89718956  0.75319033  0.50810732    -0.04600
C2553       C  0.88138964  0.77039528  0.48682079    -0.01700
C2554       C  0.84966890  0.77060229  0.48700919     0.03300
C2555       C  0.82362358  0.76638776  0.05612607     0.37900
C2556       C  0.89783294  0.78773688  0.46372047     0.37900
C2557       C  0.83512373  0.78889512  0.46486057     0.36400
C2558       C  0.88593010  0.76587094  0.05742019     0.36400
N2559       N  0.82345894  0.80343599  0.44717039    -0.38500
N2560       N  0.89173154  0.77164092  0.07970217    -0.38500
N2561       N  0.91056054  0.80121609  0.44452689    -0.37900
N2562       N  0.80508644  0.77268866  0.07742630    -0.37900
C2563       C  0.58866743  0.74656216  0.00229633    -0.04600
C2564       C  0.60360901  0.76909023  0.98535329    -0.01700
C2565       C  0.63540464  0.76959592  0.98418002     0.03300
C2566       C  0.65396006  0.74754521  0.99985309    -0.04600
C2567       C  0.63872839  0.72547319  0.01738682    -0.01700
C2568       C  0.60705058  0.72474988  0.01818977     0.03300
C2569       C  0.58591516  0.79266074  0.96951360     0.37900
C2570       C  0.65511172  0.70424922  0.03631709     0.37900
C2571       C  0.58348780  0.72327496  0.55295088     0.36400
C2572       C  0.64913416  0.79300056  0.96629189     0.36400
N2573       N  0.57090074  0.71189852  0.57391380    -0.38500
N2574       N  0.66017617  0.81171223  0.95208293    -0.38500
N2575       N  0.65903677  0.70928410  0.56628597    -0.37900
N2576       N  0.57181535  0.81158517  0.95692353    -0.37900
C2577       C  0.75159456  0.00286184  0.32932907    -0.04600
C2578       C  0.73027858  0.99156222  0.35268263    -0.01700
C2579       C  0.73173964  0.99287288  0.38390739     0.03300
C2580       C  0.75481687  0.00501848  0.39343098    -0.04600
C2581       C  0.77572928  0.01685788  0.37026699    -0.01700
C2582       C  0.77407475  0.01594342  0.33908569     0.03300
C2583       C  0.70707554  0.97740621  0.34487138     0.37900
C2584       C  0.79941248  0.03007803  0.37844801     0.37900
C2585       C  0.79504607  0.02994350  0.31687542     0.36400
C2586       C  0.70855940  0.98245895  0.40665325     0.36400
N2587       N  0.81148661  0.04135144  0.29899537    -0.38500
N2588       N  0.68993004  0.97449201  0.42494116    -0.38500
N2589       N  0.82027895  0.44901299  0.41334849    -0.37900
N2590       N  0.68835634  0.96575838  0.33939969    -0.37900
C2591       C  0.75290850  0.49785589  0.09638555    -0.04600
C2592       C  0.72566072  0.50481647  0.11836415    -0.01700
C2593       C  0.72590905  0.50570615  0.14987244     0.03300
C2594       C  0.75370871  0.50029589  0.16114805    -0.04600
C2595       C  0.78174673  0.99378929  0.12206506    -0.01700
C2596       C  0.78252753  0.99374304  0.09027088     0.03300
C2597       C  0.69683227  0.51139425  0.10839806     0.37900
C2598       C  0.81028349  0.98417220  0.13219092     0.37900
C2599       C  0.81130326  0.98399209  0.06980645     0.36400
C2600       C  0.69683361  0.51253688  0.17049507     0.36400
N2601       N  0.83424510  0.97631061  0.05338644    -0.38500
N2602       N  0.67348607  0.51807053  0.18678668    -0.38500
N2603       N  0.83325997  0.97660019  0.13998352    -0.37900
N2604       N  0.67383431  0.51684071  0.10041844    -0.36100
C2605       C  0.99770743  0.83591273  0.25603561    -0.04600
C2606       C  0.47526338  0.85730074  0.27439750    -0.01700
C2607       C  0.47867011  0.88823994  0.27586952     0.03300
C2608       C  0.50389158  0.89931812  0.25779416    -0.04600
C2609       C  0.02732707  0.87731649  0.24110429    -0.01700
C2610       C  0.02438297  0.84611363  0.24046205     0.03300
C2611       C  0.44835251  0.84778577  0.29228172     0.37900
C2612       C  0.05550881  0.88592648  0.22521154     0.37900
C2613       C  0.05001497  0.82411603  0.22504306     0.36400
C2614       C  0.45678259  0.90789730  0.29778270     0.36400
N2615       N  0.07058640  0.80659949  0.21297047    -0.38500
N2616       N  0.43948163  0.92322530  0.31564743    -0.38500
N2617       N  0.07820497  0.89244577  0.21266855    -0.37900
N2618       N  0.42689088  0.84039873  0.30675606    -0.37900
C2619       C  0.49622075  0.58662774  0.25309458    -0.04600
C2620       C  0.51679335  0.60104669  0.23194078    -0.01700
C2621       C  0.51697876  0.63282777  0.23338730     0.03300
C2622       C  0.99546369  0.65193444  0.25489332    -0.04600
C2623       C  0.97538862  0.63739838  0.27662523    -0.01700
C2624       C  0.97586128  0.60534645  0.27580122     0.03300
C2625       C  0.53792054  0.58350102  0.20791669     0.37900
C2626       C  0.95417050  0.65500916  0.30054185     0.37900
C2627       C  0.95585594  0.59167484  0.29943650     0.36400
C2628       C  0.54065601  0.64527351  0.21294544     0.36400
N2629       N  0.93991833  0.58094367  0.31841651    -0.38500
N2630       N  0.55975752  0.65495656  0.19674439    -0.38500
N2631       N  0.93733520  0.66873597  0.31987674    -0.37900
N2632       N  0.55486758  0.56971728  0.18869476    -0.37900
C2633       C  0.50601350  0.90050934  0.49245321    -0.04600
C2634       C  0.51712803  0.87951154  0.01180068    -0.01700
C2635       C  0.51043222  0.84990091  0.01625887     0.03300
C2636       C  0.48941345  0.84221405  0.50232855    -0.04600
C2637       C  0.97875264  0.86222249  0.48019571    -0.01700
C2638       C  0.98675940  0.89131089  0.47548184     0.03300
C2639       C  0.53491819  0.88992350  0.03083400     0.37900
C2640       C  0.96038117  0.85295187  0.46127300     0.37900
C2641       C  0.97665850  0.91106590  0.45166525     0.36400
C2642       C  0.52204280  0.83041436  0.03954285     0.36400
N2643       N  0.96870222  0.92668595  0.43258768    -0.38500
N2644       N  0.53138600  0.81504478  0.05811684    -0.38500
N2645       N  0.94607718  0.84636349  0.44535723    -0.37900
N2646       N  0.54958827  0.89782837  0.04569776    -0.37900
C2647       C  0.99975436  0.65716910  0.01190145    -0.04600
C2648       C  0.97565764  0.65057497  0.49672231    -0.01700
C2649       C  0.97083594  0.62027073  0.50080574     0.03300
C2650       C  0.98915356  0.59647141  0.02119871    -0.04600
C2651       C  0.49939084  0.61039954  0.04305222    -0.01700
C2652       C  0.50482461  0.64057666  0.03848703     0.03300
C2653       C  0.95987448  0.67098423  0.47659072     0.37900
C2654       C  0.50334106  0.59397581  0.07076656     0.37900
C2655       C  0.51531667  0.65427551  0.06155717     0.36400
C2656       C  0.95193230  0.60949721  0.48325014     0.36400
N2657       N  0.52335008  0.66496948  0.08031842    -0.38500
N2658       N  0.93674831  0.60127066  0.46915615    -0.38500
N2659       N  0.50643460  0.58094746  0.09288813    -0.37900
N2660       N  0.94727444  0.68714868  0.46052254    -0.37900
C2661       C  0.89998767  0.50822641  0.47192853    -0.04600
C2662       C  0.89790706  0.01013594  0.44828409    -0.01700
C2663       C  0.86779614  0.00669555  0.44841789     0.03300
C2664       C  0.83941855  0.50066514  0.47982951    -0.04600
C2665       C  0.84816979  0.52443149  0.96456479    -0.01700
C2666       C  0.87824467  0.52889062  0.96149391     0.03300
C2667       C  0.92216106  0.99848742  0.42342594     0.37900
C2668       C  0.82679850  0.54653409  0.95094665     0.37900
C2669       C  0.88716593  0.55650314  0.94707560     0.36400
C2670       C  0.86153482  0.98977758  0.42491503     0.36400
N2671       N  0.89423151  0.57856179  0.93564554    -0.38500
N2672       N  0.85654579  0.97623871  0.40618726    -0.38500
N2673       N  0.80976984  0.56410525  0.94005407    -0.37900
N2674       N  0.94142188  0.98954358  0.40340355    -0.37900
C2675       C  0.60849946  0.98586570  0.02319599    -0.04600
C2676       C  0.63232944  0.96573368  0.53391416    -0.01700
C2677       C  0.66327778  0.96821324  0.52542360     0.03300
C2678       C  0.67003351  0.99252156  0.00731110    -0.04600
C2679       C  0.63948808  0.51867218  0.01827818    -0.01700
C2680       C  0.60924428  0.51523469  0.02046564     0.03300
C2681       C  0.62348186  0.94141654  0.55427974     0.37900
C2682       C  0.64827887  0.54688324  0.00519448     0.37900
C2683       C  0.58821779  0.53881079  0.00783043     0.36400
C2684       C  0.68607760  0.94635796  0.53743113     0.36400
N2685       N  0.57167994  0.55759412  0.99760769    -0.38500
N2686       N  0.70422007  0.92884566  0.54697792    -0.38500
N2687       N  0.65504515  0.56950410  0.99491170    -0.37900
N2688       N  0.61643404  0.92212985  0.57066799    -0.37900
C2689       C  0.03758212  0.98123207  0.33069331    -0.04600
C2690       C  0.03397086  0.51518317  0.34142909    -0.01700
C2691       C  0.03862005  0.51452001  0.37092565     0.03300
C2692       C  0.04542147  0.97696662  0.38987992    -0.04600
C2693       C  0.54259835  0.95082803  0.37588505    -0.01700
C2694       C  0.53831517  0.95299360  0.34621425     0.03300
C2695       C  0.03012906  0.54403515  0.32499351     0.37900
C2696       C  0.54288053  0.92196708  0.39231498     0.37900
C2697       C  0.53365703  0.92646698  0.33196154     0.36400
C2698       C  0.03987811  0.54257962  0.38494009     0.36400
N2699       N  0.53011072  0.90520304  0.32064384    -0.38500
N2700       N  0.04109552  0.56492423  0.39603965    -0.38500
N2701       N  0.54347552  0.89881004  0.40522519    -0.37900
N2702       N  0.02734977  0.56718227  0.31207311    -0.37900
C2703       C  0.45944112  0.50498563  0.11742981    -0.04600
C2704       C  0.44951177  0.53064119  0.13622585    -0.01700
C2705       C  0.45415766  0.52800722  0.16593551     0.03300
C2706       C  0.46836942  0.49968168  0.17669447    -0.04600
C2707       C  0.98591971  0.97254964  0.15898314    -0.01700
C2708       C  0.98148828  0.97549233  0.12943026     0.03300
C2709       C  0.43651490  0.56006256  0.12447804     0.37900
C2710       C  0.00024337  0.94321537  0.16994830     0.37900
C2711       C  0.99123371  0.94921574  0.10996344     0.36400
C2712       C  0.44633894  0.55478992  0.18469439     0.36400
N2713       N  0.99891235  0.92821443  0.09452332    -0.38500
N2714       N  0.44017383  0.57614344  0.19967499    -0.38500
N2715       N  0.01166814  0.91975946  0.17849752    -0.37900
N2716       N  0.42603323  0.58351823  0.11512823    -0.37900
O2717       O  0.57230899  0.95802278  0.01443855    -0.80100
O2718       O  0.95410713  0.99867508  0.96834414    -0.64800
O2719       O  0.52680360  0.49914300  0.98715447    -1.11400
C2720       C  0.46385732  0.51245865  0.58420738     1.06800
O2721       O  0.92987135  0.53649169  0.49123032    -0.78000
O2722       O  0.95245398  0.56403929  0.52891773    -0.65600
Ni2723     Ni  0.56526434  0.96320677  0.97460219     1.34900
C2724       C  0.97945735  0.56864319  0.52563864     0.85500
O2725       O  0.01104867  0.99301888  0.93549115    -0.78600
O2726       O  0.55941807  0.96723604  0.93399972    -0.88800
C2727       C  0.92910389  0.51336633  0.97501524     0.85100
O2728       O  0.54357132  0.93058017  0.98228032    -0.67000
O2729       O  0.94059792  0.52055403  0.57214598    -0.86300
C2730       C  0.51602652  0.92901864  0.98304882     0.85900
C2731       C  0.03739347  0.98018991  0.92160546     1.07500
H2732       H  0.97440006  0.98148371  0.52702549     0.39300
O2733       O  0.98002652  0.00052382  0.51890061    -1.09000
O2734       O  0.50249412  0.54740684  0.52511547    -0.65600
Ni2735     Ni  0.50923761  0.50368131  0.52857304     1.26300
O2736       O  0.99566110  0.95213560  0.97971868    -0.65900
O2737       O  0.49118150  0.50539727  0.56986379    -0.78200
C2738       C  0.57823040  0.98245109  0.52804435     0.85300
O2739       O  0.54646225  0.50697858  0.53863291    -0.65300
Ni2740     Ni  0.93612509  0.52772003  0.53114768     1.27400
Ni2741     Ni  0.99375560  0.99572860  0.97701355     1.26100
H2742       H  0.53194468  0.51883181  0.98071632     0.39800
O2743       O  0.54184317  0.98587364  0.77742268    -0.73700
O2744       O  0.50885357  0.49769815  0.70257956    -0.73700
O2745       O  0.52369433  0.53632711  0.73896797    -0.73700
O2746       O  0.52576850  0.94688632  0.74292515    -0.73800
O2747       O  0.97806030  0.95692259  0.76780268    -0.73700
O2748       O  0.97640737  0.54331122  0.76524214    -0.73700
O2749       O  0.96138780  0.50489299  0.72926127    -0.73700
O2750       O  0.99384675  0.99554115  0.80304751    -0.73700
Ni2751     Ni  0.52652157  0.49241439  0.73748979     1.25400
Ni2752     Ni  0.97732263  0.00044692  0.76754875     1.25400
C2753       C  0.52257817  0.98889361  0.80208070     0.88500
C2754       C  0.47994515  0.50290850  0.70415111     0.88500
C2755       C  0.49964234  0.55443112  0.75222854     0.88500
C2756       C  0.50156202  0.93711148  0.75605204     0.88600
O2757       O  0.78698627  0.52248942  0.99390445    -0.73700
O2758       O  0.70271721  0.52069054  0.01587161    -0.73700
O2759       O  0.74716626  0.52501305  0.54690712    -0.73700
O2760       O  0.74293634  0.52121299  0.96178410    -0.73800
O2761       O  0.76479845  0.97988032  0.94175750    -0.73700
O2762       O  0.76769427  0.97928160  0.52755069    -0.73700
O2763       O  0.72578351  0.97299055  0.49382196    -0.73700
O2764       O  0.80797080  0.98648998  0.47493809    -0.73700
Ni2765     Ni  0.74444086  0.52338666  0.00468450     1.25400
Ni2766     Ni  0.76745978  0.97791121  0.48421322     1.25400
C2767       C  0.81104447  0.01366801  0.97431729     0.88500
C2768       C  0.70392883  0.99624918  0.49778149     0.88500
C2769       C  0.75859474  0.00415766  0.54289283     0.88500
C2770       C  0.75572925  0.00505568  0.92790927     0.88600
O2771       O  0.54469423  0.74489824  0.97866827    -0.73700
O2772       O  0.95716767  0.74908444  0.97939047    -0.73700
O2773       O  0.49633791  0.79038561  0.97567979    -0.73700
O2774       O  0.50606614  0.70320852  0.98291366    -0.73800
O2775       O  0.99114704  0.70938651  0.53500583    -0.73700
O2776       O  0.97979762  0.79663101  0.52994097    -0.73700
O2777       O  0.94137668  0.75428357  0.53275492    -0.73700
O2778       O  0.52940353  0.75158738  0.53139402    -0.73700
Ni2779     Ni  0.50133915  0.74674893  0.97749997     1.25400
Ni2780     Ni  0.98503598  0.75304480  0.53402401     1.25400
C2781       C  0.54889225  0.75103168  0.50629487     0.88500
C2782       C  0.93164124  0.75362666  0.50809946     0.88500
C2783       C  0.98525191  0.80977245  0.50430334     0.88500
C2784       C  0.99647937  0.69421172  0.51094495     0.88600
O2785       O  0.54459766  0.73945994  0.74823682    -0.73700
O2786       O  0.97264044  0.75249762  0.71615293    -0.73700
O2787       O  0.50734557  0.78955984  0.73208965    -0.73700
O2788       O  0.51016527  0.70227177  0.73228448    -0.73800
O2789       O  0.98293715  0.70480430  0.77888796    -0.73700
O2790       O  0.97966921  0.79241240  0.77865335    -0.73700
O2791       O  0.94483396  0.75511764  0.76259181    -0.73700
O2792       O  0.51685706  0.74246236  0.79472605    -0.73700
Ni2793     Ni  0.50970594  0.74579304  0.73045140     1.25400
Ni2794     Ni  0.97997099  0.74880683  0.78040064     1.25400
C2795       C  0.54249183  0.73985956  0.77653909     0.88500
C2796       C  0.94693086  0.75541174  0.73422097     0.88500
C2797       C  0.99393052  0.80552543  0.75585800     0.88500
C2798       C  0.99707269  0.68890515  0.75578510     0.88600
O2799       O  0.81930010  0.73938941  0.69913287    -0.80100
O2800       O  0.68003475  0.74061981  0.75844422    -0.64800
O2801       O  0.75702743  0.75916527  0.72208960    -1.11400
C2802       C  0.76594773  0.76979312  0.81907991     1.06800
O2803       O  0.66912310  0.77109655  0.79772555    -0.78000
O2804       O  0.70803997  0.81099078  0.77463145    -0.65600
Ni2805     Ni  0.78139584  0.73146943  0.69206121     1.34900
C2806       C  0.73261141  0.82017950  0.76278103     0.85500
O2807       O  0.70554990  0.75207893  0.70314109    -0.78600
O2808       O  0.74682044  0.72145475  0.67928669    -0.88800
C2809       C  0.66171875  0.75316765  0.78098996     0.85100
O2810       O  0.78229753  0.69779481  0.71974931    -0.67000
O2811       O  0.74187061  0.78883958  0.81687066    -0.86300
C2812       C  0.75861923  0.68758990  0.73250406     0.85900
C2813       C  0.71999166  0.73680509  0.68054734     1.07500
H2814       H  0.73339359  0.72920157  0.78606252     0.39300
O2815       O  0.73131308  0.74923788  0.77669256    -1.09000
O2816       O  0.75855045  0.80223928  0.76041954    -0.65600
Ni2817     Ni  0.77037601  0.75764670  0.75909643     1.26300
O2818       O  0.73221133  0.70498552  0.73790523    -0.65900
O2819       O  0.78180395  0.75444813  0.79689870    -0.78200
C2820       C  0.82746393  0.75405390  0.71817415     0.85300
O2821       O  0.80951875  0.76497180  0.74162429    -0.65300
Ni2822     Ni  0.70699325  0.77917366  0.80466316     1.27400
Ni2823     Ni  0.71832505  0.74956130  0.74000293     1.26100
H2824       H  0.75400160  0.77959209  0.71363091     0.39800
O2825       O  0.73441784  0.72355055  0.54285384    -0.73700
O2826       O  0.76245194  0.72665648  0.95674415    -0.73700
O2827       O  0.78869567  0.72727325  0.50428137    -0.73700
O2828       O  0.70301515  0.72841634  0.49837093    -0.73800
O2829       O  0.69764860  0.77366748  0.99951637    -0.73700
O2830       O  0.78299891  0.77489229  0.00482495    -0.73700
O2831       O  0.75147489  0.77727758  0.95953294    -0.73700
O2832       O  0.72422525  0.77399479  0.54717320    -0.73700
Ni2833     Ni  0.74624744  0.72620768  0.50078861     1.25400
Ni2834     Ni  0.73995784  0.77597289  0.00207938     1.25400
C2835       C  0.72416540  0.74725037  0.55898065     0.88500
C2836       C  0.76135040  0.75299407  0.94399043     0.88500
C2837       C  0.80315970  0.74984190  0.00331619     0.88500
C2838       C  0.68319511  0.75373466  0.50035412     0.88600
O2839       O  0.72078261  0.97046510  0.74373595    -0.73700
O2840       O  0.73197150  0.55013523  0.75631422    -0.73700
O2841       O  0.72842227  0.50830953  0.71538583    -0.73700
O2842       O  0.72710815  0.01122929  0.78468373    -0.73800
O2843       O  0.77708628  0.99475528  0.77567229    -0.73700
O2844       O  0.77856257  0.49407544  0.70614890    -0.73700
O2845       O  0.78253632  0.53582147  0.74704805    -0.73700
O2846       O  0.77087292  0.95306418  0.73557812    -0.73700
Ni2847     Ni  0.72607380  0.01225437  0.74123028     1.25400
Ni2848     Ni  0.77985902  0.49311865  0.74941631     1.25400
C2849       C  0.74348148  0.94804932  0.74078166     0.88500
C2850       C  0.75860838  0.55694265  0.75064138     0.88500
C2851       C  0.75358402  0.50127485  0.69590864     0.88500
C2852       C  0.75207012  0.00335782  0.79491882     0.88600
C2853       C  0.76150060  0.58986950  0.74768460    -0.04600
C2854       C  0.77994887  0.60063518  0.72209083    -0.01700
C2855       C  0.77962054  0.63238760  0.71753356     0.03300
C2856       C  0.76142395  0.65383864  0.73898081    -0.04600
C2857       C  0.74476229  0.64268687  0.76561801    -0.01700
C2858       C  0.74454063  0.61098719  0.76974392     0.03300
C2859       C  0.79831122  0.57918770  0.69961973     0.37900
C2860       C  0.72820490  0.66352793  0.78929494     0.37900
C2861       C  0.72730919  0.59996576  0.79716467     0.36400
C2862       C  0.79686674  0.64285783  0.68981668     0.36400
N2863       N  0.71364229  0.59113254  0.81904401    -0.38500
N2864       N  0.81060276  0.65115721  0.66769700    -0.38500
N2865       N  0.71464387  0.67952586  0.80858702    -0.37900
N2866       N  0.81308485  0.56214634  0.68172451    -0.37900
C2867       C  0.73176315  0.85329656  0.75403750    -0.04600
C2868       C  0.71204814  0.87664174  0.77233884    -0.01700
C2869       C  0.71483443  0.90764343  0.76703329     0.03300
C2870       C  0.73793694  0.91582705  0.74395997    -0.04600
C2871       C  0.75586872  0.89291274  0.72415830    -0.01700
C2872       C  0.75248361  0.86196648  0.72886923     0.03300
C2873       C  0.68952468  0.86897017  0.79758126     0.37900
C2874       C  0.77706521  0.90132914  0.69815302     0.37900
C2875       C  0.76977264  0.83938048  0.70704498     0.36400
C2876       C  0.69405114  0.93090540  0.78600341     0.36400
N2877       N  0.78386015  0.82195615  0.68918034    -0.38500
N2878       N  0.67685833  0.94914654  0.80103759    -0.38500
N2879       N  0.79382925  0.90809525  0.67733839    -0.37900
N2880       N  0.67146257  0.86302723  0.81767948    -0.37900
C2881       C  0.71268708  0.74347441  0.59173503    -0.04600
C2882       C  0.71588182  0.71384199  0.60558601    -0.01700
C2883       C  0.71302919  0.71114834  0.63670676     0.03300
C2884       C  0.70661720  0.73764422  0.65387230    -0.04600
C2885       C  0.69566985  0.76617781  0.64131185    -0.01700
C2886       C  0.69927504  0.76937835  0.61006615     0.03300
C2887       C  0.72303967  0.68592344  0.58846488     0.37900
C2888       C  0.68252773  0.79255206  0.66023614     0.37900
C2889       C  0.69005067  0.79953807  0.59734426     0.36400
C2890       C  0.71821806  0.68121768  0.65118055     0.36400
N2891       N  0.68278121  0.82370574  0.58742333    -0.38500
N2892       N  0.72227711  0.65743544  0.66283146    -0.38500
N2893       N  0.67163543  0.81351748  0.67529273    -0.37900
N2894       N  0.72855787  0.66353541  0.57502583    -0.37900
C2895       C  0.77376209  0.76409453  0.84870686    -0.04600
C2896       C  0.77530404  0.73434361  0.86134708    -0.01700
C2897       C  0.77385515  0.72994436  0.89228011     0.03300
C2898       C  0.77058632  0.75555269  0.91076589    -0.04600
C2899       C  0.77411012  0.78435470  0.89693008    -0.01700
C2900       C  0.77435793  0.78884315  0.86621944     0.03300
C2901       C  0.77544168  0.70856806  0.84308313     0.37900
C2902       C  0.77808368  0.80940583  0.91382660     0.37900
C2903       C  0.77389590  0.81924486  0.85280737     0.36400
C2904       C  0.77501078  0.69901854  0.90455069     0.36400
N2905       N  0.77315305  0.84349276  0.84210203    -0.38500
N2906       N  0.77616358  0.67423544  0.91400784    -0.38500
N2907       N  0.78159007  0.82934560  0.92713336    -0.37900
N2908       N  0.77547127  0.68800886  0.82864787    -0.37900
C2909       C  0.63010068  0.74736067  0.78723961    -0.04600
C2910       C  0.62449864  0.71835382  0.78096442    -0.01700
C2911       C  0.59462322  0.71468303  0.78102463     0.03300
C2912       C  0.57039301  0.73968320  0.78754180    -0.04600
C2913       C  0.57519955  0.76728850  0.79763252    -0.01700
C2914       C  0.60508013  0.77137104  0.79715221     0.03300
C2915       C  0.64925433  0.69240589  0.77315681     0.37900
C2916       C  0.54964493  0.79241943  0.80614796     0.37900
C2917       C  0.60982327  0.80125841  0.80416359     0.36400
C2918       C  0.58875401  0.68554918  0.77315296     0.36400
N2919       N  0.61341494  0.82518281  0.80966067    -0.38500
N2920       N  0.58399133  0.66234772  0.76698368    -0.38500
N2921       N  0.52942461  0.81252094  0.81313547    -0.37900
N2922       N  0.66843832  0.67133066  0.76648036    -0.37900
C2923       C  0.91898230  0.75781481  0.72249328    -0.04600
C2924       C  0.89662369  0.78463282  0.72717159    -0.01700
C2925       C  0.86696126  0.78439151  0.72319349     0.03300
C2926       C  0.85976270  0.75721150  0.71418677    -0.04600
C2927       C  0.88342202  0.73156805  0.70579739    -0.01700
C2928       C  0.91300023  0.73185485  0.71021862     0.03300
C2929       C  0.90406844  0.81231621  0.73664491     0.37900
C2930       C  0.87707877  0.70388498  0.69508561     0.37900
C2931       C  0.93664003  0.70458890  0.70437497     0.36400
C2932       C  0.84382859  0.81191725  0.72959216     0.36400
N2933       N  0.95542189  0.68281491  0.69977777    -0.38500
N2934       N  0.82595214  0.83419571  0.73519373    -0.38500
N2935       N  0.87214319  0.68177521  0.68650585    -0.37900
N2936       N  0.90990816  0.83457084  0.74387429    -0.37900
C2937       C  0.83722443  0.75042922  0.00362063    -0.04600
C2938       C  0.84826212  0.73396266  0.52788869    -0.01700
C2939       C  0.87977474  0.73466393  0.52850821     0.03300
C2940       C  0.90227441  0.75113746  0.00391317    -0.04600
C2941       C  0.89230867  0.74334438  0.97796432    -0.01700
C2942       C  0.86072582  0.74282764  0.97799541     0.03300
C2943       C  0.83211481  0.71417873  0.54872096     0.37900
C2944       C  0.91447861  0.73526560  0.95065336     0.37900
C2945       C  0.85220965  0.73497882  0.95093296     0.36400
C2946       C  0.89477540  0.71472663  0.54934525     0.36400
N2947       N  0.84539594  0.72878538  0.92931169    -0.38500
N2948       N  0.90676422  0.69860853  0.56587539    -0.38500
N2949       N  0.93193207  0.72886127  0.92864884    -0.37900
N2950       N  0.81919418  0.69831054  0.56528172    -0.37900
C2951       C  0.58331900  0.75231551  0.50510917    -0.04600
C2952       C  0.60053277  0.76825387  0.48171138    -0.01700
C2953       C  0.63233468  0.76907440  0.48029984     0.03300
C2954       C  0.64874333  0.75348998  0.50175226    -0.04600
C2955       C  0.63160740  0.73794297  0.52523304    -0.01700
C2956       C  0.59959318  0.73799685  0.52731352     0.03300
C2957       C  0.58522242  0.78522235  0.45939455     0.37900
C2958       C  0.64691791  0.72208966  0.54804777     0.37900
C2959       C  0.59366281  0.70042960  0.03467047     0.36400
C2960       C  0.64851774  0.78557498  0.45605124     0.36400
N2961       N  0.58324073  0.68067857  0.04755988    -0.38500
N2962       N  0.66153578  0.79867998  0.43667131    -0.38500
N2963       N  0.66782618  0.68747916  0.05186885    -0.37900
N2964       N  0.57301995  0.79889814  0.44159838    -0.37900
C2965       C  0.75249117  0.00441104  0.82932929    -0.04600
C2966       C  0.72672638  0.00154856  0.85256449    -0.01700
C2967       C  0.72813319  0.00096270  0.88394637     0.03300
C2968       C  0.75458213  0.00512992  0.89393931    -0.04600
C2969       C  0.77959005  0.00998361  0.87105483    -0.01700
C2970       C  0.77891249  0.00891364  0.83964893     0.03300
C2971       C  0.69794715  0.00001744  0.84469218     0.37900
C2972       C  0.80597579  0.01757837  0.87977573     0.37900
C2973       C  0.80550264  0.01406383  0.81791106     0.36400
C2974       C  0.70182394  0.99626079  0.90632993     0.36400
N2975       N  0.82678242  0.01822191  0.80061845    -0.38500
N2976       N  0.68090175  0.99237332  0.92425887    -0.38500
N2977       N  0.82451456  0.45743762  0.91240309    -0.37900
N2978       N  0.67440476  0.99957124  0.83915951    -0.37900
C2979       C  0.75332758  0.50044301  0.59604911    -0.04600
C2980       C  0.72606238  0.50821533  0.61788168    -0.01700
C2981       C  0.72605816  0.50838728  0.64952045     0.03300
C2982       C  0.75362758  0.50135062  0.66118093    -0.04600
C2983       C  0.78347452  0.99649980  0.62148414    -0.01700
C2984       C  0.78434030  0.99554890  0.58970161     0.03300
C2985       C  0.69745096  0.51635300  0.60762263     0.37900
C2986       C  0.81225260  0.99088897  0.63145864     0.37900
C2987       C  0.81332717  0.98649384  0.56936303     0.36400
C2988       C  0.69694992  0.51620360  0.66990436     0.36400
N2989       N  0.83645252  0.97909518  0.55313401    -0.38500
N2990       N  0.67358149  0.52251097  0.68602478    -0.38500
N2991       N  0.83540175  0.98677280  0.63912107    -0.37900
N2992       N  0.67464294  0.52304197  0.59938468    -0.36100
C2993       C  0.99614191  0.83908882  0.75685733    -0.04600
C2994       C  0.47293850  0.86009590  0.77430183    -0.01700
C2995       C  0.47518520  0.89147153  0.77501685     0.03300
C2996       C  0.50049513  0.90286158  0.75742507    -0.04600
C2997       C  0.02468803  0.88118506  0.74141152    -0.01700
C2998       C  0.02250655  0.84976374  0.74119319     0.03300
C2999       C  0.44639544  0.84994289  0.79224774     0.37900
C3000       C  0.05265072  0.89022153  0.72546867     0.37900
C3001       C  0.04859324  0.82809343  0.72601382     0.36400
C3002       C  0.45162636  0.91144057  0.79527027     0.36400
N3003       N  0.06949854  0.81087249  0.71406524    -0.38500
N3004       N  0.43286115  0.92708044  0.81169509    -0.38500
N3005       N  0.07517738  0.89706754  0.71288210    -0.37900
N3006       N  0.42524547  0.84203282  0.80678834    -0.37900
C3007       C  0.49887573  0.58887161  0.75293751    -0.04600
C3008       C  0.51974382  0.60323353  0.73204078    -0.01700
C3009       C  0.51963041  0.63513148  0.73328132     0.03300
C3010       C  0.99821260  0.65433291  0.75547214    -0.04600
C3011       C  0.97766418  0.63980338  0.77662944    -0.01700
C3012       C  0.97774531  0.60791525  0.77525317     0.03300
C3013       C  0.54120141  0.58559663  0.70827753     0.37900
C3014       C  0.95607724  0.65732236  0.80037568     0.37900
C3015       C  0.95585505  0.59472312  0.79731918     0.36400
C3016       C  0.54252806  0.64791154  0.71207639     0.36400
N3017       N  0.93820637  0.58444544  0.81488575    -0.38500
N3018       N  0.56087095  0.65790116  0.69510866    -0.38500
N3019       N  0.93894817  0.67094358  0.81959302    -0.37900
N3020       N  0.55839077  0.57178072  0.68922763    -0.37900
C3021       C  0.50747045  0.89852580  0.98844745    -0.04600
C3022       C  0.51644373  0.88058115  0.51490651    -0.01700
C3023       C  0.50825992  0.85157534  0.51978322     0.03300
C3024       C  0.49439579  0.83872114  0.99703265    -0.04600
C3025       C  0.98478498  0.85782398  0.97356078    -0.01700
C3026       C  0.99116426  0.88766783  0.96945650     0.03300
C3027       C  0.53613659  0.88953072  0.53280089     0.37900
C3028       C  0.96874666  0.84673755  0.95331454     0.37900
C3029       C  0.98272523  0.90632339  0.94437295     0.36400
C3030       C  0.52145078  0.83061836  0.54122612     0.36400
N3031       N  0.97623968  0.92090669  0.92410160    -0.38500
N3032       N  0.53227662  0.81411440  0.55823835    -0.38500
N3033       N  0.95619323  0.83790635  0.93694955    -0.37900
N3034       N  0.55208654  0.89641037  0.54688711    -0.37900
C3035       C  0.99467215  0.66131820  0.51296485    -0.04600
C3036       C  0.99062276  0.64228324  0.98949136    -0.01700
C3037       C  0.98566047  0.61203043  0.99412456     0.03300
C3038       C  0.98451553  0.60053341  0.52156392    -0.04600
C3039       C  0.50336572  0.61138560  0.53782888    -0.01700
C3040       C  0.50879485  0.64153617  0.53322546     0.03300
C3041       C  0.98471184  0.65813641  0.96207473     0.37900
C3042       C  0.51600732  0.59187745  0.56052036     0.37900
C3043       C  0.52948852  0.65159970  0.54903814     0.36400
C3044       C  0.97712623  0.59664691  0.97080064     0.36400
N3045       N  0.54635028  0.65886956  0.56175354    -0.38500
N3046       N  0.97044662  0.58427258  0.95225139    -0.38500
N3047       N  0.52590045  0.57630977  0.57868077    -0.37900
N3048       N  0.97994279  0.67047629  0.94010141    -0.37900
C3049       C  0.89958613  0.50669989  0.97289416    -0.04600
C3050       C  0.89674102  0.00667596  0.94917348    -0.01700
C3051       C  0.86664750  0.00277751  0.95018497     0.03300
C3052       C  0.83911280  0.49847735  0.98062933    -0.04600
C3053       C  0.84889002  0.52601334  0.46291600    -0.01700
C3054       C  0.87926204  0.52973690  0.45909566     0.03300
C3055       C  0.92115683  0.99178591  0.92600234     0.37900
C3056       C  0.82761708  0.54846120  0.44952485     0.37900
C3057       C  0.88923298  0.55577335  0.44224935     0.36400
C3058       C  0.86090586  0.98114362  0.93042563     0.36400
N3059       N  0.89720895  0.57641217  0.42861908    -0.38500
N3060       N  0.85643564  0.96375109  0.91473395    -0.38500
N3061       N  0.81073692  0.56651067  0.43892720    -0.37900
N3062       N  0.94044876  0.98043407  0.90706801    -0.37900
C3063       C  0.60982545  0.98730826  0.52317565    -0.04600
C3064       C  0.63144503  0.96300762  0.03156713    -0.01700
C3065       C  0.66218433  0.96626878  0.02375951     0.03300
C3066       C  0.67175881  0.99228244  0.50589897    -0.04600
C3067       C  0.63961124  0.52236741  0.51890921    -0.01700
C3068       C  0.60907966  0.51959452  0.52170798     0.03300
C3069       C  0.62326789  0.93634338  0.04864564     0.37900
C3070       C  0.64860969  0.55054106  0.50594592     0.37900
C3071       C  0.58793342  0.54412147  0.51037145     0.36400
C3072       C  0.68534309  0.94282345  0.03342426     0.36400
N3073       N  0.57130315  0.56362088  0.50112130    -0.38500
N3074       N  0.70367837  0.92400795  0.04117770    -0.38500
N3075       N  0.65547772  0.57312552  0.49567800    -0.37900
N3076       N  0.61670848  0.91516677  0.06236768    -0.37900
C3077       C  0.03362520  0.98521377  0.83012342    -0.04600
C3078       C  0.03381966  0.51515889  0.84151643    -0.01700
C3079       C  0.03748756  0.51416589  0.87134996     0.03300
C3080       C  0.04223542  0.98050317  0.88898756    -0.04600
C3081       C  0.54175254  0.95365334  0.87403267    -0.01700
C3082       C  0.53661722  0.95609747  0.84465132     0.03300
C3083       C  0.02914565  0.54436230  0.82579506     0.37900
C3084       C  0.54588016  0.92400248  0.88905590     0.37900
C3085       C  0.53367906  0.92923760  0.82970146     0.36400
C3086       C  0.03672787  0.54226401  0.88637631     0.36400
N3087       N  0.53145485  0.90774338  0.81782305    -0.38500
N3088       N  0.03625082  0.56466321  0.89830605    -0.38500
N3089       N  0.54972129  0.90022436  0.90075335    -0.37900
N3090       N  0.02564094  0.56781472  0.81349318    -0.37900
C3091       C  0.45968809  0.51055162  0.61694618    -0.04600
C3092       C  0.45590925  0.53740683  0.63342342    -0.01700
C3093       C  0.46038802  0.53509924  0.66314851     0.03300
C3094       C  0.46836490  0.50595556  0.67621216    -0.04600
C3095       C  0.98139316  0.97690209  0.65866244    -0.01700
C3096       C  0.97806127  0.98023818  0.62879155     0.03300
C3097       C  0.44977107  0.56724195  0.61905838     0.37900
C3098       C  0.99389328  0.94707941  0.67010654     0.37900
C3099       C  0.98684827  0.95385809  0.60939062     0.36400
C3100       C  0.45802552  0.56255376  0.67983600     0.36400
N3101       N  0.99374885  0.93292527  0.59383782    -0.38500
N3102       N  0.45597528  0.58449868  0.69314154    -0.38500
N3103       N  0.00387959  0.92323809  0.67904953    -0.37900
N3104       N  0.44494244  0.59099697  0.60750646    -0.37900
loop_ 
_geom_bond_atom_site_label_1 
_geom_bond_atom_site_label_2 
_geom_bond_distance 
_geom_bond_site_symmetry_2 
_ccdc_geom_bond_type 
O1           Ni7   1.916       .  S
O1          C410   1.266       .  A
O2          Ni25   1.881       .  S
O2          C787   1.256       .  A
O3           H26   0.965   1_565  S
O3         Ni783   1.905       .  S
O3        Ni2353   1.889   1_455  S
O3         Ni407   1.921   1_565  S
C4           O21   1.276       .  A
C4         O1565   1.278       .  A
C4          C375   1.468       .  S
O5          Ni24   1.915   1_556  S
O5          C399   1.264       .  A
O6          Ni24   1.902       .  S
O6            C8   1.263       .  A
Ni7          O10   1.928       .  S
Ni7          O12   1.901       .  S
Ni7         O779   1.913       .  S
C8         O1570   1.265       .  A
C8          C322   1.471       .  S
O9          Ni25   1.896       .  S
O9           C15   1.273       .  A
O10        C1567   1.277       .  A
C11         O778   1.268   1_545  A
C11         O393   1.262       .  A
C11         C333   1.489       .  S
O12          C14   1.266       .  A
O13         Ni24   1.923       .  S
O13        C1556   1.278       .  A
C14        O1572   1.262   1_455  A
C14         C305   1.480       .  S
C15        O1562   1.277       .  A
C15         C364   1.466       .  S
H16          O17   0.966       .  S
O17        Ni413   1.926   1_554  S
O17       Ni2347   1.888       .  S
O17        Ni800   1.917       .  S
O18         Ni19   1.915       .  S
O18        C1560   1.265   1_455  A
Ni19         O23   1.896       .  S
Ni19         O21   1.904   1_455  S
Ni19        O391   1.919   1_544  S
Ni19       O2345   1.885   1_445  S
O20         Ni25   1.906       .  S
O20        C1566   1.262       .  A
C22         O389   1.264       .  A
C22         O799   1.258       .  A
C22         C347   1.458       .  S
O23         C798   1.262   1_545  A
Ni24        O793   1.899   1_545  S
Ni25       O2331   1.885       .  S
Ni25        O405   1.928       .  S
O27        Ni811   1.906       .  S
O27          C37   1.276       .  A
O28         Ni35   1.903       .  S
O28          C38   1.279   1_455  A
O29         Ni35   1.947   1_545  S
O29          C39   1.288       .  A
O30        Ni811   1.938       .  S
O30          C40   1.285       .  A
O31         Ni36   1.940       .  S
O31        C1592   1.286       .  A
O32        Ni812   1.932   1_545  S
O32        C1591   1.284       .  A
O33        Ni812   1.909   1_545  S
O33        C1590   1.278   1_545  A
O34         Ni36   1.912       .  S
O34        C1589   1.280       .  A
Ni35        O803   1.902       .  S
Ni35        O806   1.944       .  S
Ni35      Ni2364   2.382   1_455  S
Ni36        O808   1.937       .  S
Ni36        O809   1.913       .  S
Ni36      Ni2363   2.382       .  S
C37        O1586   1.280   1_455  A
C37        C1913   1.466       .  S
C38        O1585   1.278   1_565  A
C38         C378   1.467       .  S
C39        O1584   1.284   1_455  A
C39         C291   1.527       .  S
C40        O1583   1.286   1_455  A
C40         C280   1.532       .  S
O41         Ni49   1.898       .  S
O41         C827   1.277       .  A
O42         Ni49   1.889       .  S
O42        C1216   1.276   1_545  A
O43        Ni437   1.981   1_554  S
O43         C829   1.293       .  A
O44         Ni49   1.989       .  S
O44         C830   1.295       .  A
O45        Ni438   1.981       .  S
O45          C54   1.293       .  A
O46         Ni50   1.991       .  S
O46          C53   1.296       .  A
O47         Ni50   1.904       .  S
O47          C52   1.279       .  A
O48         Ni50   1.893   1_556  S
O48         C439   1.276       .  A
Ni49        O431   1.984       .  S
Ni49      Ni1214   2.376   1_545  S
Ni50        O433   1.984   1_554  S
Ni50      Ni1213   2.374       .  S
C51         O817   1.277       .  A
C51         O436   1.276       .  A
C51        C1112   1.474       .  S
C52        O1206   1.276       .  A
C52         C350   1.481       .  S
C53         O819   1.291       .  A
C53        C1039   1.561       .  S
C54         O820   1.296       .  A
C54         C252   1.567       .  S
O55         Ni63   1.976       .  S
O55         C453   1.292       .  A
O56       Ni1615   1.986       .  S
O56         C454   1.295       .  A
O57         Ni63   1.915   1_655  S
O57        C2007   1.281       .  A
O58         Ni63   1.917       .  S
O58        C2008   1.281       .  A
O59         Ni64   1.905       .  S
O59          C68   1.278       .  A
O60         Ni64   1.902       .  S
O60          C67   1.278   1_554  A
O61         Ni64   1.987       .  S
O61          C66   1.295       .  A
O62       Ni1616   1.990   1_455  S
O62          C65   1.296   1_554  A
Ni63       O1608   1.986   1_455  S
Ni63      Ni2004   2.372   1_455  S
Ni64       O1614   1.990       .  S
Ni64      Ni2003   2.371   1_554  S
C65         O443   1.292       .  A
C65         C235   1.563       .  S
C66         O444   1.295   1_554  A
C66         C612   1.572       .  S
C67        O1997   1.281       .  A
C67        C2248   1.484       .  S
C68        O1998   1.282   1_554  A
C68         C319   1.501       .  S
O69         Ni77   1.897       .  S
O69          C79   1.278       .  A
O70       Ni1629   1.899       .  S
O70          C80   1.275       .  A
O71         Ni77   1.946       .  S
O71        C1633   1.288       .  A
O72         Ni77   1.944       .  S
O72        C1634   1.287       .  A
O73         Ni78   1.936       .  S
O73          C82   1.285       .  A
O74         Ni78   1.931       .  S
O74          C81   1.284       .  A
O75         Ni78   1.910       .  S
O75          C80   1.280       .  A
O76       Ni1630   1.907   1_455  S
O76          C79   1.278       .  A
Ni77       O1622   1.899   1_455  S
Ni77      Ni1630   2.382   1_455  S
Ni78       O1628   1.907       .  S
Ni78      Ni1629   2.382       .  S
C79         C196   1.465       .  S
C80         C207   1.462       .  S
C81        O1623   1.288       .  A
C81         C277   1.529       .  S
C82        O1624   1.287       .  A
C82         C294   1.535       .  S
O83         Ni89   1.922       .  S
O83         C104   1.271       .  A
O84        Ni107   1.884       .  S
O84          C93   1.264       .  A
O85         H108   0.962       .  S
O85         Ni89   1.914       .  S
O85        Ni107   1.897       .  S
O85        Ni101   1.893       .  S
C86         O103   1.263       .  A
C86          O95   1.265       .  A
C86         C179   1.465       .  S
O87        Ni106   1.923       .  S
O87          C93   1.271       .  A
O88        Ni106   1.916       .  S
O88          C90   1.276       .  A
Ni89         O92   1.922       .  S
Ni89         O94   1.909       .  S
C90         O100   1.282       .  A
C90         C151   1.496       .  S
O91        Ni107   1.886       .  S
O91          C97   1.261       .  A
O92          C97   1.271       .  A
C93         C193   1.482       .  S
O94          C96   1.271       .  A
O95        Ni106   1.919       .  S
C96         O102   1.278       .  A
C96         C140   1.494       .  S
C97         C168   1.458       .  S
H98          O99   0.966       .  S
O99        Ni107   1.899       .  S
O99        Ni101   1.900       .  S
O99        Ni106   1.915       .  S
O100       Ni101   1.960       .  S
Ni101       O105   1.883       .  S
Ni101       O103   1.905       .  S
O102       Ni107   1.955       .  S
C104        O105   1.264       .  A
C104        C210   1.476       .  S
O109       Ni117   1.898       .  S
O109        C119   1.278       .  A
O110       Ni505   1.904       .  S
O110        C120   1.277       .  A
O111       Ni117   1.978       .  S
O111        C509   1.293       .  A
O112       Ni117   1.985   1_556  S
O112        C122   1.295       .  A
O113       Ni118   1.982       .  S
O113        C510   1.294       .  A
O114       Ni118   1.989       .  S
O114        C121   1.295       .  A
O115       Ni118   1.907       .  S
O115        C120   1.280       .  A
O116       Ni506   1.907   1_554  S
O116        C119   1.278       .  A
Ni117       O498   1.901   1_554  S
Ni117      Ni506   2.368   1_554  S
Ni118       O504   1.908       .  S
Ni118      Ni505   2.367       .  S
C119        C165   1.492       .  S
C120        C182   1.495       .  S
C121        O499   1.293       .  A
C121        C221   1.568       .  S
C122        O501   1.295       .  A
C122        C238   1.577       .  S
O123       Ni131   1.922       .  S
O123        C133   1.281       .  A
O124       Ni907   1.912       .  S
O124        C134   1.279       .  A
O125       Ni907   1.991       .  S
O125        C135   1.297       .  A
O126       Ni131   1.974       .  S
O126        C136   1.292       .  A
O127       Ni908   1.991       .  S
O127        C136   1.297       .  A
O128       Ni132   1.976       .  S
O128        C135   1.292   1_565  A
O129       Ni132   1.927   1_545  S
O129        C134   1.282       .  A
O130       Ni908   1.919       .  S
O130        C133   1.280       .  A
Ni131       O900   1.926       .  S
Ni131       O901   1.979       .  S
Ni131      Ni908   2.370       .  S
Ni132       O903   1.980       .  S
Ni132       O906   1.931       .  S
Ni132      Ni907   2.370   1_565  S
C133        C154   1.488       .  S
C134        C137   1.484       .  S
C135        C266   1.584       .  S
C136        C249   1.578       .  S
C137        C138   1.410       .  A
C137        C142   1.411       .  A
C138        C139   1.414       .  A
C138        C143   1.452       .  S
C139        C140   1.419       .  A
C139        C146   1.451       .  S
C140        C141   1.416       .  A
C141        C142   1.413       .  A
C141        C144   1.449       .  S
C142        C145   1.452       .  S
C143        N150   1.157       .  T
C144        N149   1.157       .  T
C145        N147   1.157       .  T
C146        N148   1.157       .  T
C151        C152   1.419       .  A
C151        C156   1.417       .  A
C152        C153   1.414       .  A
C152        C157   1.451       .  S
C153        C154   1.411       .  A
C153        C160   1.452       .  S
C154        C155   1.412       .  A
C155        C156   1.414       .  A
C155        C158   1.453       .  S
C156        C159   1.449       .  S
C157        N164   1.157       .  T
C158        N163   1.157       .  T
C159        N161   1.157       .  T
C160        N162   1.157       .  T
C165        C166   1.424       .  A
C165        C170   1.422       .  A
C166        C167   1.401       .  A
C166        C171   1.451       .  S
C167        C168   1.400       .  A
C167        C174   1.453       .  S
C168        C169   1.407       .  A
C169        C170   1.406       .  A
C169        C172   1.453       .  S
C170        C173   1.452       .  S
C171        N178   1.157       .  T
C172        N177   1.158       .  T
C173        N175   1.158       .  T
C174        N176   1.157       .  T
C179        C180   1.407       .  A
C179        C184   1.403       .  A
C180        C181   1.409       .  A
C180        C185   1.453       .  S
C181        C182   1.424       .  A
C181        C188   1.452       .  S
C182        C183   1.422       .  A
C183        C184   1.404       .  A
C183        C186   1.452       .  S
C184        C187   1.452       .  S
C185        N192   1.157       .  T
C186        N191   1.157       .  T
C187        N189   1.157       .  T
C188        N190   1.158       .  T
C193        C194   1.418       .  A
C193        C198   1.416       .  A
C194        C195   1.404       .  A
C194        C199   1.452       .  S
C195        C196   1.406       .  A
C195        C202   1.453       .  S
C196        C197   1.409       .  A
C197        C198   1.407       .  A
C197        C200   1.453       .  S
C198        C201   1.451       .  S
C199        N206   1.157       .  T
C200        N205   1.157       .  T
C201        N203   1.157       .  T
C202        N204   1.157       .  T
C207        C208   1.406       .  A
C207        C212   1.408       .  A
C208        C209   1.405       .  A
C208        C213   1.451       .  S
C209        C210   1.416       .  A
C209        C216   1.452       .  S
C210        C211   1.415       .  A
C211        C212   1.404       .  A
C211        C214   1.452       .  S
C212        C215   1.453       .  S
C213        N220   1.157       .  T
C214        N219   1.157       .  T
C215        N217   1.157       .  T
C216        N218   1.157       .  T
C221        C226   1.426       .  A
C221        C610   1.427       .  A
C222        C223   1.448       .  A
C222        C609   1.427       .  A
C222        C227   1.448       .  S
C223        C612   1.430       .  A
C223        C230   1.448       .  S
C224        C454   1.573       .  S
C224        C225   1.428       .  A
C224        C611   1.430       .  A
C225        C226   1.444       .  A
C225        C228   1.447       .  S
C226        C229   1.450       .  S
C227        N234   1.158       .  T
C228        N233   1.157       .  T
C229        N231   1.157       .  T
C230        N232   1.157       .  T
C235        C236   1.425       .  A
C235        C240   1.421   1_556  A
C236        C237   1.446       .  A
C236        C241   1.449       .  S
C237        C238   1.432       .  A
C237        C244   1.448       .  S
C238        C239   1.433   1_556  A
C239        C240   1.445       .  A
C239        C242   1.447       .  S
C240        C631   1.448       .  S
C241        N248   1.157       .  T
C242        N635   1.157       .  T
C243        C628   1.448       .  S
C243        N245   1.157       .  T
C244        N246   1.157       .  T
N247        C630   1.157       .  T
C249        C250   1.434       .  A
C249        C254   1.432       .  A
C250        C251   1.444       .  A
C250        C255   1.449       .  S
C251        C252   1.422       .  A
C251        C258   1.447       .  S
C252        C253   1.426       .  A
C253        C254   1.447       .  A
C253        C256   1.449       .  S
C254        C257   1.448       .  S
C255        N262   1.158       .  T
C256       N1037   1.157       .  T
C257        N259   1.158       .  T
C258        N260   1.157       .  T
N261       C1032   1.157       .  T
C263        C829   1.563       .  S
C263        C264   1.422       .  A
C263       C1044   1.421   1_545  A
C264        C265   1.446       .  A
C264        C269   1.449       .  S
C265        C266   1.435       .  A
C265        C272   1.448       .  S
C266       C1043   1.438   1_545  A
C267        C268   1.446       .  A
C267       C1042   1.436       .  A
C267        C270   1.448       .  S
C268       C1039   1.421       .  A
C268        C271   1.449       .  S
C269        N276   1.157       .  T
C270        N275   1.158       .  T
C271        N273   1.157       .  T
C272        N274   1.158       .  T
C277        C282   1.422       .  A
C277       C1830   1.424       .  A
C278        C279   1.424       .  A
C278       C1829   1.424   1_655  A
C278        C283   1.452       .  S
C279        C280   1.424   1_655  A
C279        C286   1.452       .  S
C280       C1833   1.426       .  A
C281        C282   1.425       .  A
C281       C1832   1.426       .  A
C281        C284   1.452       .  S
C282        C285   1.452       .  S
C283        N290   1.158       .  T
C284        N289   1.158       .  T
C285        N287   1.158       .  T
C286        N288   1.158       .  T
C291        C292   1.420       .  A
C291       C1848   1.421   1_455  A
C292        C293   1.426       .  A
C292        C297   1.451       .  S
C293       C1846   1.426       .  A
C293        C300   1.451       .  S
C294        C295   1.427       .  A
C294       C1845   1.426       .  A
C295        C296   1.424       .  A
C295        C298   1.452       .  S
C296       C1843   1.422       .  A
C296        C299   1.453       .  S
C297        N304   1.157       .  T
C298        N303   1.158       .  T
C299        N301   1.158       .  T
C300        N302   1.158       .  T
C305        C694   1.410       .  A
C305       C1862   1.416   1_455  A
C306        C307   1.405       .  A
C306        C693   1.411   1_554  A
C306        C311   1.453       .  S
C307        C696   1.418   1_454  A
C307        C314   1.454       .  S
C308       C2007   1.483       .  S
C308        C695   1.419   1_655  A
C308       C1861   1.413       .  A
C309        C310   1.410       .  A
C309       C1860   1.413       .  A
C309        C312   1.451       .  S
C310       C1857   1.416       .  A
C310        C313   1.452       .  S
C311        N318   1.157       .  T
C312        N317   1.157       .  T
C313        N315   1.158       .  T
C314        N316   1.157       .  T
C319        C708   1.422   1_554  A
C319       C1876   1.426       .  A
C320        C321   1.407       .  A
C320        C707   1.422       .  A
C320        C325   1.451       .  S
C321        C710   1.406       .  A
C321        C328   1.454       .  S
C322        C709   1.407   1_554  A
C322       C1875   1.404       .  A
C323        C324   1.410       .  A
C323       C1874   1.404   1_455  A
C323        C326   1.452       .  S
C324       C1871   1.426       .  A
C324        C327   1.452       .  S
C325        N332   1.158       .  T
C326        N331   1.157       .  T
C327        N329   1.158       .  T
C328        N330   1.157       .  T
C333       C1110   1.416       .  A
C333        C726   1.422       .  A
C334        C335   1.400       .  A
C334       C1109   1.409       .  A
C334        C339   1.455       .  S
C335       C1112   1.417       .  A
C335        C342   1.454       .  S
C336        C827   1.474       .  S
C336       C1111   1.409       .  A
C336        C725   1.411       .  A
C337        C338   1.403       .  A
C337        C724   1.413       .  A
C337        C340   1.455   1_556  S
C338        C721   1.419       .  A
C338        C341   1.454   1_556  S
C339        N346   1.157       .  T
C340        N345   1.158       .  T
C341        N343   1.158       .  T
C342        N344   1.158       .  T
C347        C736   1.403       .  A
C347       C1128   1.409       .  A
C348        C349   1.404       .  A
C348        C735   1.404       .  A
C348        C353   1.452       .  S
C349        C738   1.420       .  A
C349        C356   1.452       .  S
C350        C737   1.420       .  A
C350       C1127   1.419       .  A
C351        C352   1.401       .  A
C351       C1126   1.421   1_545  A
C351        C354   1.455   1_554  S
C352       C1123   1.410   1_545  A
C352        C355   1.455   1_554  S
C353        N360   1.157       .  T
C354        N359   1.158       .  T
C355        N357   1.157       .  T
C356        N358   1.158       .  T
C361       C1589   1.465       .  S
C361       C1138   1.409       .  A
C361       C1918   1.409       .  A
C362        C363   1.404       .  A
C362       C1137   1.408   1_545  A
C362        C367   1.451       .  S
C363       C1140   1.408   1_545  A
C363        C370   1.451       .  S
C364       C1139   1.408       .  A
C364       C1917   1.410       .  A
C365        C366   1.407       .  A
C365       C1916   1.410       .  A
C365        C368   1.451       .  S
C366       C1913   1.409       .  A
C366        C369   1.451       .  S
C367        N374   1.157       .  T
C368        N373   1.157       .  T
C369        N371   1.157       .  T
C370        N372   1.157       .  T
C375        C376   1.410       .  A
C375       C2708   1.410   1_545  A
C376        C377   1.409       .  A
C376        C381   1.450       .  S
C377        C378   1.411   1_545  A
C377        C384   1.451       .  S
C378       C2707   1.409       .  A
C379        C380   1.403       .  A
C379       C2706   1.408       .  A
C379        C382   1.450       .  S
C380       C2703   1.412       .  A
C380        C383   1.453       .  S
C381        N388   1.157       .  T
C382        N387   1.156       .  T
C383        N385   1.157       .  T
C384        N386   1.157       .  T
O389       Ni395   1.915   1_554  S
O390       Ni413   1.883       .  S
O390       C1175   1.258       .  A
O391        H414   0.966   1_565  S
O391      Ni1171   1.903       .  S
O391      Ni2741   1.888   1_455  S
C392        O409   1.278       .  A
C392       O1953   1.278       .  A
C392        C763   1.464       .  S
O393       Ni412   1.910       .  S
O394       Ni412   1.896       .  S
O394        C396   1.262       .  A
Ni395       O398   1.926       .  S
Ni395       O400   1.900       .  S
Ni395      O1167   1.918       .  S
C396       O1958   1.263       .  A
C396        C710   1.463       .  S
O397       Ni413   1.899       .  S
O397        C403   1.273       .  A
O398       C1955   1.276       .  A
C399       O1166   1.268   1_545  A
C399        C721   1.491       .  S
O400        C402   1.266       .  A
O401       Ni412   1.916       .  S
O401       C1944   1.278       .  A
C402       O1960   1.264   1_455  A
C402        C693   1.481       .  S
C403       O1950   1.276       .  A
C403        C752   1.469       .  S
H404        O405   0.966       .  S
O405      Ni2735   1.888       .  S
O405      Ni1188   1.915       .  S
O406       Ni407   1.909       .  S
O406       C1948   1.263   1_455  A
Ni407       O411   1.904       .  S
Ni407       O409   1.908   1_455  S
Ni407      O2733   1.885   1_455  S
O408       Ni413   1.910       .  S
O408       C1954   1.264       .  A
C410       O1187   1.259       .  A
C410        C735   1.460       .  S
O411       C1186   1.264   1_545  A
Ni412      O1181   1.897       .  S
Ni413      O2719   1.889       .  S
O415      Ni1199   1.913       .  S
O415        C425   1.278       .  A
O416       Ni423   1.900       .  S
O416        C426   1.278   1_465  A
O417       Ni423   1.946   1_545  S
O417        C427   1.288       .  A
O418      Ni1199   1.938       .  S
O418        C428   1.285       .  A
O419       Ni424   1.937       .  S
O419       C1980   1.286       .  A
O420      Ni1200   1.931       .  S
O420       C1979   1.284       .  A
O421      Ni1200   1.910       .  S
O421       C1978   1.278       .  A
O422       Ni424   1.910       .  S
O422       C1977   1.279       .  A
Ni423      O1191   1.898       .  S
Ni423      O1194   1.941       .  S
Ni423     Ni2752   2.382   1_465  S
Ni424      O1196   1.934       .  S
Ni424      O1197   1.909       .  S
Ni424     Ni2751   2.383       .  S
C425       O1974   1.279   1_455  A
C425       C2301   1.469       .  S
C426       O1973   1.278       .  A
C426        C766   1.464       .  S
C427       O1972   1.284   1_455  A
C427        C679   1.530       .  S
C428       O1971   1.286   1_455  A
C428        C668   1.525       .  S
O429       Ni437   1.894       .  S
O429       C1215   1.276       .  A
O430       Ni437   1.884       .  S
O430        C828   1.275   1_545  A
O431       C1217   1.294       .  A
O432       Ni437   1.987       .  S
O432       C1218   1.294       .  A
O433        C442   1.294       .  A
O434       Ni438   1.991       .  S
O434        C441   1.296       .  A
O435       Ni438   1.902       .  S
O435        C440   1.278       .  A
O436       Ni438   1.890       .  S
Ni437      Ni826   2.375   1_545  S
Ni438      Ni825   2.373       .  S
C439       O1205   1.278       .  A
C439       C1500   1.477       .  S
C440        O818   1.276       .  A
C440        C738   1.483       .  S
C441       O1207   1.293       .  A
C441       C1427   1.565       .  S
C442       O1208   1.294       .  A
C442        C640   1.564       .  S
O443       Ni451   1.977   1_455  S
O444      Ni2003   1.984       .  S
O445       Ni451   1.916       .  S
O445       C1619   1.281       .  A
O446       Ni451   1.921   1_455  S
O446       C1620   1.282   1_556  A
O447       Ni452   1.898       .  S
O447        C456   1.277       .  A
O448       Ni452   1.898       .  S
O448        C455   1.277       .  A
O449       Ni452   1.986       .  S
O449        C454   1.295       .  A
O450      Ni2004   1.990   1_455  S
O450        C453   1.296       .  A
Ni451      O1996   1.984       .  S
Ni451     Ni1616   2.371   1_556  S
Ni452      O2002   1.990       .  S
Ni452     Ni1615   2.372       .  S
C453        C623   1.563       .  S
C455       O1609   1.281       .  A
C455       C1860   1.483       .  S
C456       O1610   1.281       .  A
C456        C707   1.495       .  S
O457       Ni465   1.899       .  S
O457        C467   1.278       .  A
O458      Ni2017   1.897       .  S
O458        C468   1.275       .  A
O459       Ni465   1.941       .  S
O459       C2021   1.287       .  A
O460       Ni465   1.940       .  S
O460       C2022   1.286       .  A
O461       Ni466   1.939       .  S
O461        C470   1.286       .  A
O462       Ni466   1.934       .  S
O462        C469   1.285       .  A
O463       Ni466   1.907       .  S
O463        C468   1.280       .  A
O464      Ni2018   1.907   1_455  S
O464        C467   1.278       .  A
Ni465      O2010   1.897   1_455  S
Ni465     Ni2018   2.381   1_455  S
Ni466      O2016   1.908       .  S
Ni466     Ni2017   2.381       .  S
C467        C584   1.467       .  S
C468        C595   1.464       .  S
C469       O2011   1.287       .  A
C469        C665   1.534       .  S
C470       O2012   1.286       .  A
C470        C682   1.531       .  S
O471       Ni477   1.918       .  S
O471        C492   1.270       .  A
O472       Ni495   1.879       .  S
O472        C481   1.264       .  A
O473        H496   0.961       .  S
O473       Ni477   1.911       .  S
O473       Ni495   1.893       .  S
O473       Ni489   1.897       .  S
C474        O491   1.264       .  A
C474        O483   1.266       .  A
C474        C567   1.464       .  S
O475       Ni494   1.924       .  S
O475        C481   1.271       .  A
O476       Ni494   1.912       .  S
O476        C478   1.275       .  A
Ni477       O480   1.920       .  S
Ni477       O482   1.908       .  S
C478        O488   1.281       .  A
C478        C539   1.490       .  S
O479       Ni495   1.891       .  S
O479        C485   1.260       .  A
O480        C485   1.268       .  A
C481        C581   1.480       .  S
O482        C484   1.273       .  A
O483       Ni494   1.922       .  S
C484        O490   1.282       .  A
C484        C528   1.495       .  S
C485        C556   1.460       .  S
H486        O487   0.966       .  S
O487       Ni495   1.898       .  S
O487       Ni489   1.896       .  S
O487       Ni494   1.914       .  S
O488       Ni489   1.956       .  S
Ni489       O493   1.879       .  S
Ni489       O491   1.903       .  S
O490       Ni495   1.962       .  S
C492        O493   1.265       .  A
C492        C598   1.477       .  S
O497       Ni505   1.899       .  S
O497        C507   1.278       .  A
O498        C508   1.277       .  A
O499       Ni505   1.978       .  S
O500       Ni505   1.987       .  S
O500        C510   1.296       .  A
O501       Ni506   1.984       .  S
O502       Ni506   1.990   1_554  S
O502        C509   1.295       .  A
O503       Ni506   1.908       .  S
O503        C508   1.280       .  A
O504        C507   1.278       .  A
C507        C553   1.493       .  S
C508        C570   1.492       .  S
C509        C609   1.569       .  S
C510        C626   1.577       .  S
O511       Ni519   1.918       .  S
O511        C521   1.280       .  A
O512      Ni1295   1.912       .  S
O512        C522   1.279       .  A
O513      Ni1295   1.994       .  S
O513        C523   1.298       .  A
O514       Ni519   1.978       .  S
O514        C524   1.293       .  A
O515      Ni1296   1.989       .  S
O515        C524   1.296       .  A
O516       Ni520   1.980       .  S
O516        C523   1.293   1_565  A
O517       Ni520   1.928   1_545  S
O517        C522   1.282       .  A
O518      Ni1296   1.917       .  S
O518        C521   1.280       .  A
Ni519      O1288   1.922       .  S
Ni519      O1289   1.984       .  S
Ni519     Ni1296   2.369       .  S
Ni520      O1291   1.981       .  S
Ni520      O1294   1.931       .  S
Ni520     Ni1295   2.369   1_565  S
C521        C542   1.482       .  S
C522        C525   1.486       .  S
C523        C654   1.587       .  S
C524        C637   1.582       .  S
C525        C526   1.410       .  A
C525        C530   1.412       .  A
C526        C527   1.414       .  A
C526        C531   1.451       .  S
C527        C528   1.419       .  A
C527        C534   1.451       .  S
C528        C529   1.416       .  A
C529        C530   1.413       .  A
C529        C532   1.449       .  S
C530        C533   1.453       .  S
C531        N538   1.157       .  T
C532        N537   1.157       .  T
C533        N535   1.157       .  T
C534        N536   1.157       .  T
C539        C540   1.417       .  A
C539        C544   1.416       .  A
C540        C541   1.413       .  A
C540        C545   1.452       .  S
C541        C542   1.411       .  A
C541        C548   1.452       .  S
C542        C543   1.410       .  A
C543        C544   1.412       .  A
C543        C546   1.453       .  S
C544        C547   1.449       .  S
C545        N552   1.157       .  T
C546        N551   1.157       .  T
C547        N549   1.157       .  T
C548        N550   1.157       .  T
C553        C554   1.424       .  A
C553        C558   1.423       .  A
C554        C555   1.402       .  A
C554        C559   1.450       .  S
C555        C556   1.400       .  A
C555        C562   1.454       .  S
C556        C557   1.407       .  A
C557        C558   1.407       .  A
C557        C560   1.453       .  S
C558        C561   1.452       .  S
C559        N566   1.157       .  T
C560        N565   1.157       .  T
C561        N563   1.158       .  T
C562        N564   1.157       .  T
C567        C568   1.407       .  A
C567        C572   1.404       .  A
C568        C569   1.407       .  A
C568        C573   1.452       .  S
C569        C570   1.422       .  A
C569        C576   1.452       .  S
C570        C571   1.421       .  A
C571        C572   1.405       .  A
C571        C574   1.452       .  S
C572        C575   1.452       .  S
C573        N580   1.157       .  T
C574        N579   1.157       .  T
C575        N577   1.157       .  T
C576        N578   1.158       .  T
C581        C582   1.417       .  A
C581        C586   1.416       .  A
C582        C583   1.402       .  A
C582        C587   1.453       .  S
C583        C584   1.406       .  A
C583        C590   1.451       .  S
C584        C585   1.410       .  A
C585        C586   1.408       .  A
C585        C588   1.452       .  S
C586        C589   1.452       .  S
C587        N594   1.157       .  T
C588        N593   1.157       .  T
C589        N591   1.157       .  T
C590        N592   1.157       .  T
C595        C596   1.406       .  A
C595        C600   1.410       .  A
C596        C597   1.402       .  A
C596        C601   1.452       .  S
C597        C598   1.416       .  A
C597        C604   1.453       .  S
C598        C599   1.416       .  A
C599        C600   1.405       .  A
C599        C602   1.452       .  S
C600        C603   1.452       .  S
C601        N608   1.157       .  T
C602        N607   1.158       .  T
C603        N605   1.157       .  T
C604        N606   1.157       .  T
C609        C614   1.426   1_554  A
C610        C611   1.448       .  A
C610        C615   1.448       .  S
C611        C618   1.448       .  S
C612        C613   1.428   1_554  A
C613        C614   1.444       .  A
C613        C616   1.448       .  S
C614        C617   1.449       .  S
C615        N622   1.158       .  T
C616        N621   1.157       .  T
C617        N619   1.157       .  T
C618        N620   1.157       .  T
C623        C624   1.424       .  A
C623        C628   1.422       .  A
C624        C625   1.446       .  A
C624        C629   1.449       .  S
C625        C626   1.432       .  A
C625        C632   1.448       .  S
C626        C627   1.432       .  A
C627        C628   1.445       .  A
C627        C630   1.446       .  S
C629        N636   1.157       .  T
C631        N633   1.157       .  T
C632        N634   1.157       .  T
C637        C638   1.435       .  A
C637        C642   1.435       .  A
C638        C639   1.445       .  A
C638        C643   1.449       .  S
C639        C640   1.421       .  A
C639        C646   1.447       .  S
C640        C641   1.424       .  A
C641        C642   1.447       .  A
C641        C644   1.449       .  S
C642        C645   1.448       .  S
C643        N650   1.158       .  T
C644       N1425   1.157       .  T
C645        N647   1.158       .  T
C646        N648   1.157       .  T
N649       C1420   1.157       .  T
C651       C1217   1.566       .  S
C651        C652   1.423       .  A
C651       C1432   1.422   1_545  A
C652        C653   1.447       .  A
C652        C657   1.449       .  S
C653        C654   1.436       .  A
C653        C660   1.448       .  S
C654       C1431   1.438   1_545  A
C655       C1430   1.437       .  A
C655        C656   1.448       .  A
C655        C658   1.448       .  S
C656       C1427   1.422       .  A
C656        C659   1.448       .  S
C657        N664   1.157       .  T
C658        N663   1.158       .  T
C659        N661   1.157       .  T
C660        N662   1.157       .  T
C665       C2218   1.428       .  A
C665        C670   1.427       .  A
C666       C2217   1.427   1_655  A
C666        C667   1.423       .  A
C666        C671   1.452       .  S
C667        C668   1.419   1_655  A
C667        C674   1.453       .  S
C668       C2221   1.421       .  A
C669       C2220   1.421       .  A
C669        C670   1.425       .  A
C669        C672   1.452       .  S
C670        C673   1.452       .  S
C671        N678   1.158       .  T
C672        N677   1.158       .  T
C673        N675   1.158       .  T
C674        N676   1.158       .  T
C679        C680   1.422       .  A
C679       C2236   1.425   1_455  A
C680        C681   1.425       .  A
C680        C685   1.451       .  S
C681       C2234   1.424       .  A
C681        C688   1.451       .  S
C682       C2233   1.424       .  A
C682        C683   1.424       .  A
C683        C684   1.424       .  A
C683        C686   1.452       .  S
C684       C2231   1.425       .  A
C684        C687   1.452       .  S
C685        N692   1.157       .  T
C686        N691   1.158       .  T
C687        N689   1.158       .  T
C688        N690   1.158       .  T
C693       C2250   1.416   1_455  A
C694        C695   1.404       .  A
C694        C699   1.453       .  S
C695        C702   1.454       .  S
C696       C1619   1.484       .  S
C696       C2249   1.413       .  A
C697       C2248   1.413       .  A
C697        C698   1.411       .  A
C697        C700   1.451       .  S
C698       C2245   1.415       .  A
C698        C701   1.452       .  S
C699        N706   1.157       .  T
C700        N705   1.157       .  T
C701        N703   1.157       .  T
C702        N704   1.157       .  T
C707       C2264   1.426       .  A
C708        C709   1.409       .  A
C708        C713   1.451       .  S
C709        C716   1.454       .  S
C710       C2263   1.402       .  A
C711       C2262   1.402   1_455  A
C711        C712   1.407       .  A
C711        C714   1.453       .  S
C712       C2259   1.426       .  A
C712        C715   1.452       .  S
C713        N720   1.158       .  T
C714        N719   1.157       .  T
C715        N717   1.158       .  T
C716        N718   1.157       .  T
C721       C1498   1.415       .  A
C722       C1497   1.411       .  A
C722        C723   1.401       .  A
C722        C727   1.455       .  S
C723       C1500   1.417       .  A
C723        C730   1.454   1_556  S
C724       C1215   1.475       .  S
C724       C1499   1.411       .  A
C725        C726   1.404       .  A
C725        C728   1.455       .  S
C726        C729   1.454       .  S
C727        N734   1.157   1_556  T
C728        N733   1.157       .  T
C729        N731   1.158       .  T
C730        N732   1.158       .  T
C735       C1516   1.409       .  A
C736        C737   1.405       .  A
C736        C741   1.452       .  S
C737        C744   1.452       .  S
C738       C1515   1.421       .  A
C739       C1514   1.417   1_545  A
C739        C740   1.402       .  A
C739        C742   1.455       .  S
C740       C1511   1.411   1_545  A
C740        C743   1.454       .  S
C741        N748   1.157       .  T
C742        N747   1.158       .  T
C743        N745   1.157       .  T
C744        N746   1.157       .  T
C749       C1977   1.468       .  S
C749       C1526   1.409       .  A
C749       C2306   1.410       .  A
C750       C1525   1.407   1_545  A
C750        C751   1.403       .  A
C750        C755   1.451       .  S
C751       C1528   1.408   1_545  A
C751        C758   1.451       .  S
C752       C1527   1.408       .  A
C752       C2305   1.411       .  A
C753       C2304   1.411       .  A
C753        C754   1.409       .  A
C753        C756   1.451       .  S
C754       C2301   1.410       .  A
C754        C757   1.451       .  S
C755        N762   1.157       .  T
C756        N761   1.157       .  T
C757        N759   1.157       .  T
C758        N760   1.157       .  T
C763        C764   1.409       .  A
C763       C3096   1.409   1_545  A
C764        C765   1.408       .  A
C764        C769   1.450       .  S
C765        C766   1.411       .  A
C765        C772   1.451       .  S
C766       C3095   1.409   1_545  A
C767       C3094   1.407       .  A
C767        C768   1.404       .  A
C767        C770   1.450       .  S
C768       C3091   1.410       .  A
C768        C771   1.452       .  S
C769        N776   1.157       .  T
C770        N775   1.157       .  T
C771        N773   1.157       .  T
C772        N774   1.157       .  T
O777       Ni783   1.907       .  S
O777       C1186   1.263       .  A
O778       Ni801   1.914       .  S
O779        H802   0.966       .  S
O779      Ni1577   1.884   1_455  S
O779      Ni1183   1.916       .  S
C780        O797   1.272       .  A
C780       O2341   1.278       .  A
C780       C1151   1.475       .  S
O781       Ni800   1.913   1_556  S
O781       C1175   1.265       .  A
O782       Ni800   1.900       .  S
O782        C784   1.265       .  A
Ni783       O786   1.924       .  S
Ni783       O788   1.894       .  S
C784       O2346   1.264       .  A
C784       C1098   1.471       .  S
O785       Ni801   1.899       .  S
O785        C791   1.276       .  A
O786       C2343   1.277       .  A
C787       O1169   1.264       .  A
C787       C1109   1.453       .  S
O788        C790   1.265       .  A
O789       Ni800   1.934       .  S
O789       C2332   1.278       .  A
C790       O2348   1.268   1_455  A
C790       C1081   1.479       .  S
C791       O2338   1.277       .  A
C791       C1140   1.461       .  S
H792        O793   0.966       .  S
O793      Ni1189   1.916   1_554  S
O793      Ni1571   1.885   1_565  S
O794       Ni795   1.911       .  S
O794       C2336   1.264   1_455  A
Ni795       O799   1.882       .  S
Ni795       O797   1.893   1_455  S
Ni795      O1167   1.923   1_554  S
Ni795      O1569   1.888   1_455  S
O796       Ni801   1.914       .  S
O796       C2342   1.268       .  A
C798       O1165   1.264       .  A
C798       C1123   1.466       .  S
Ni801      O1555   1.888       .  S
Ni801      O1181   1.916   1_565  S
O803        C813   1.275       .  A
O804       Ni811   1.911       .  S
O804        C814   1.280   1_455  A
O805       Ni811   1.937       .  S
O805        C815   1.286   1_455  A
O806        C816   1.287       .  A
O807       Ni812   1.932       .  S
O807       C2368   1.284       .  A
O808       C2367   1.285       .  A
O809       C2366   1.278       .  A
O810       Ni812   1.910       .  S
O810       C2365   1.280       .  A
Ni811     Ni1588   2.382   1_455  S
Ni812     Ni1587   2.382       .  S
C813       O2362   1.280   1_455  A
C813       C2689   1.462       .  S
C814       O2361   1.278       .  A
C814       C1154   1.472       .  S
C815       O2360   1.285       .  A
C815       C1067   1.528       .  S
C816       O2359   1.284   1_455  A
C816       C1056   1.533       .  S
O817       Ni825   1.894       .  S
O818       Ni825   1.892       .  S
O819      Ni1213   1.975       .  S
O820       Ni825   1.989       .  S
O821      Ni1214   1.985       .  S
O821        C830   1.294   1_565  A
O822       Ni826   1.985   1_554  S
O822        C829   1.294   1_565  A
O823       Ni826   1.914       .  S
O823        C828   1.281       .  A
O824       Ni826   1.913       .  S
O824       C1215   1.280   1_565  A
Ni825      O1207   1.981       .  S
Ni826      O1209   1.985       .  S
C827       O1212   1.281   1_545  A
C828       C1126   1.484   1_556  S
C830       C1028   1.566       .  S
O831       Ni839   1.978   1_455  S
O831       C1229   1.293       .  A
O832      Ni2391   1.983       .  S
O832       C1230   1.294       .  A
O833       Ni839   1.907       .  S
O833       C2783   1.279       .  A
O834       Ni839   1.912   1_455  S
O834       C2784   1.281   1_455  A
O835       Ni840   1.903       .  S
O835        C844   1.277       .  A
O836       Ni840   1.904       .  S
O836        C843   1.278   1_554  A
O837       Ni840   1.987       .  S
O837        C842   1.295       .  A
O838      Ni2392   1.992   1_455  S
O838        C841   1.297       .  A
Ni839      O2384   1.983       .  S
Ni839     Ni2780   2.374       .  S
Ni840      O2390   1.992       .  S
Ni840     Ni2779   2.370   1_554  S
C841       O1219   1.291   1_554  A
C841       C1011   1.564       .  S
C842       O1220   1.294   1_554  A
C842       C1388   1.583       .  S
C843       O2773   1.280       .  A
C843       C3024   1.484       .  S
C844       O2774   1.281   1_554  A
C844       C1095   1.494       .  S
O845       Ni853   1.895       .  S
O845        C855   1.278       .  A
O846      Ni2405   1.899       .  S
O846        C856   1.275       .  A
O847       Ni853   1.938       .  S
O847       C2409   1.286   1_455  A
O848       Ni853   1.933       .  S
O848       C2410   1.285   1_455  A
O849       Ni854   1.941       .  S
O849        C858   1.286       .  A
O850       Ni854   1.936       .  S
O850        C857   1.285       .  A
O851       Ni854   1.905       .  S
O851        C856   1.279       .  A
O852      Ni2406   1.900   1_455  S
O852        C855   1.276       .  A
Ni853      O2398   1.899   1_455  S
Ni853     Ni2406   2.384   1_455  S
Ni854      O2404   1.900       .  S
Ni854     Ni2405   2.384       .  S
C855        C972   1.458       .  S
C856        C983   1.460       .  S
C857       O2399   1.286       .  A
C857       C1053   1.523       .  S
C858       O2400   1.285       .  A
C858       C1070   1.530       .  S
O859       Ni865   1.912       .  S
O859        C880   1.269       .  A
O860       Ni883   1.880       .  S
O860        C869   1.264       .  A
O861        H884   0.964       .  S
O861       Ni865   1.911       .  S
O861       Ni883   1.901       .  S
O861       Ni877   1.911       .  S
C862        O879   1.267       .  A
C862        O871   1.266       .  A
C862        C955   1.473       .  S
O863       Ni882   1.918       .  S
O863        C869   1.270       .  A
O864       Ni882   1.917       .  S
O864        C866   1.274       .  A
Ni865       O868   1.921       .  S
Ni865       O870   1.903       .  S
C866        O876   1.280       .  A
C866        C927   1.501       .  S
O867       Ni883   1.888       .  S
O867        C873   1.259       .  A
O868        C873   1.268       .  A
C869        C969   1.483       .  S
O870        C872   1.271       .  A
O871       Ni882   1.919       .  S
C872        O878   1.284       .  A
C872        C916   1.499       .  S
C873        C944   1.466       .  S
H874        O875   0.963       .  S
O875       Ni883   1.891       .  S
O875       Ni877   1.894       .  S
O875       Ni882   1.912       .  S
O876       Ni877   1.954       .  S
Ni877       O881   1.882       .  S
Ni877       O879   1.904       .  S
O878       Ni883   1.966       .  S
C880        O881   1.264       .  A
C880        C986   1.474       .  S
O885       Ni893   1.892   1_554  S
O885        C895   1.276       .  A
O886      Ni1281   1.905       .  S
O886        C896   1.278       .  A
O887       Ni893   1.982   1_554  S
O887       C1285   1.293       .  A
O888       Ni893   1.985       .  S
O888        C898   1.295       .  A
O889       Ni894   1.983       .  S
O889       C1286   1.294       .  A
O890       Ni894   1.985       .  S
O890        C897   1.295       .  A
O891       Ni894   1.909       .  S
O891        C896   1.279       .  A
O892      Ni1282   1.903       .  S
O892        C895   1.278       .  A
Ni893      O1274   1.899       .  S
Ni893     Ni1282   2.369   1_556  S
Ni894      O1280   1.908       .  S
Ni894     Ni1281   2.368       .  S
C895        C941   1.492       .  S
C896        C958   1.504       .  S
C897       O1275   1.294       .  A
C897        C997   1.568       .  S
C898       O1277   1.293       .  A
C898       C1014   1.569       .  S
O899       Ni907   1.913   1_565  S
O899        C909   1.279       .  A
O900        C910   1.282       .  A
O901        C911   1.293       .  A
O902       Ni907   1.996       .  S
O902        C912   1.297       .  A
O903        C912   1.294   1_565  A
O904       Ni908   1.988       .  S
O904        C911   1.296       .  A
O905       Ni908   1.925       .  S
O905        C910   1.281       .  A
O906        C909   1.285       .  A
C909        C930   1.501       .  S
C910        C913   1.495       .  S
C911       C1042   1.583       .  S
C912       C1025   1.573       .  S
C913        C914   1.413       .  A
C913        C918   1.413       .  A
C914        C915   1.415       .  A
C914        C919   1.452       .  S
C915        C916   1.421       .  A
C915        C922   1.452       .  S
C916        C917   1.415       .  A
C917        C918   1.414       .  A
C917        C920   1.450       .  S
C918        C921   1.449       .  S
C919        N926   1.157       .  T
C920        N925   1.157       .  T
C921        N923   1.156       .  T
C922        N924   1.158       .  T
C927        C928   1.418       .  A
C927        C932   1.418       .  A
C928        C929   1.413       .  A
C928        C933   1.452       .  S
C929        C930   1.417       .  A
C929        C936   1.450       .  S
C930        C931   1.415       .  A
C931        C932   1.415       .  A
C931        C934   1.452       .  S
C932        C935   1.451       .  S
C933        N940   1.157       .  T
C934        N939   1.158       .  T
C935        N937   1.158       .  T
C936        N938   1.157       .  T
C941        C942   1.425       .  A
C941        C946   1.424       .  A
C942        C943   1.401       .  A
C942        C947   1.452       .  S
C943        C944   1.402       .  A
C943        C950   1.453       .  S
C944        C945   1.407       .  A
C945        C946   1.406       .  A
C945        C948   1.452       .  S
C946        C949   1.453       .  S
C947        N954   1.158       .  T
C948        N953   1.158       .  T
C949        N951   1.158       .  T
C950        N952   1.157       .  T
C955        C956   1.408       .  A
C955        C960   1.407       .  A
C956        C957   1.407       .  A
C956        C961   1.455       .  S
C957        C958   1.427       .  A
C957        C964   1.453       .  S
C958        C959   1.427       .  A
C959        C960   1.409       .  A
C959        C962   1.452       .  S
C960        C963   1.454       .  S
C961        N968   1.157       .  T
C962        N967   1.158       .  T
C963        N965   1.157       .  T
C964        N966   1.158       .  T
C969        C970   1.421       .  A
C969        C974   1.420       .  A
C970        C971   1.402       .  A
C970        C975   1.452       .  S
C971        C972   1.402       .  A
C971        C978   1.453       .  S
C972        C973   1.408       .  A
C973        C974   1.405       .  A
C973        C976   1.454       .  S
C974        C977   1.452       .  S
C975        N982   1.157       .  T
C976        N981   1.157       .  T
C977        N979   1.158       .  T
C978        N980   1.157       .  T
C983        C984   1.404       .  A
C983        C988   1.408       .  A
C984        C985   1.402       .  A
C984        C989   1.450       .  S
C985        C986   1.415       .  A
C985        C992   1.452       .  S
C986        C987   1.418       .  A
C987        C988   1.405       .  A
C987        C990   1.453       .  S
C988        C991   1.453       .  S
C989        N996   1.157       .  T
C990        N995   1.158       .  T
C991        N993   1.157       .  T
C992        N994   1.157       .  T
C997       C1386   1.427       .  A
C997       C1002   1.422       .  A
C998       C1385   1.422       .  A
C998        C999   1.447       .  A
C998       C1003   1.449       .  S
C999       C1388   1.436       .  A
C999       C1006   1.448       .  S
C1000      C1230   1.576       .  S
C1000      C1387   1.431       .  A
C1000      C1001   1.429       .  A
C1001      C1002   1.443       .  A
C1001      C1004   1.444       .  S
C1002      C1005   1.449       .  S
C1003      N1010   1.157       .  T
C1004      N1009   1.156       .  T
C1005      N1007   1.157       .  T
C1006      N1008   1.158       .  T
C1011      C1012   1.427   1_554  A
C1011      C1016   1.423       .  A
C1012      C1013   1.445       .  A
C1012      C1017   1.449       .  S
C1013      C1014   1.427       .  A
C1013      C1020   1.448       .  S
C1014      C1015   1.429   1_556  A
C1015      C1016   1.445       .  A
C1015      C1018   1.448       .  S
C1016      C1407   1.447       .  S
C1017      N1024   1.157       .  T
C1018      N1411   1.157       .  T
C1019      C1404   1.446       .  S
C1019      N1021   1.157       .  T
C1020      N1022   1.157       .  T
N1023      C1406   1.157       .  T
C1025      C1026   1.429   1_545  A
C1025      C1030   1.429       .  A
C1026      C1027   1.447       .  A
C1026      C1031   1.445       .  S
C1027      C1028   1.424   1_565  A
C1027      C1034   1.449       .  S
C1028      C1029   1.424       .  A
C1029      C1030   1.446       .  A
C1029      C1032   1.447       .  S
C1030      C1033   1.449       .  S
C1031      N1038   1.156       .  T
C1033      N1035   1.157       .  T
C1034      N1036   1.157       .  T
C1039      C1040   1.421       .  A
C1040      C1041   1.445       .  A
C1040      C1045   1.450       .  S
C1041      C1042   1.438       .  A
C1041      C1048   1.449       .  S
C1043      C1044   1.446       .  A
C1043      C1046   1.449       .  S
C1044      C1047   1.450       .  S
C1045      N1052   1.157       .  T
C1046      N1051   1.158       .  T
C1047      N1049   1.157       .  T
C1048      N1050   1.158       .  T
C1053      C2606   1.419       .  A
C1053      C1058   1.421       .  A
C1054      C2605   1.419       .  A
C1054      C1055   1.423       .  A
C1054      C1059   1.452       .  S
C1055      C1056   1.427   1_655  A
C1055      C1062   1.452       .  S
C1056      C2609   1.426       .  A
C1057      C2608   1.425       .  A
C1057      C1058   1.424       .  A
C1057      C1060   1.451       .  S
C1058      C1061   1.452       .  S
C1059      N1066   1.158       .  T
C1060      N1065   1.158       .  T
C1061      N1063   1.158       .  T
C1062      N1064   1.158       .  T
C1067      C1068   1.421   1_655  A
C1067      C2624   1.424       .  A
C1068      C1069   1.422       .  A
C1068      C1073   1.452       .  S
C1069      C2622   1.425   1_455  A
C1069      C1076   1.452       .  S
C1070      C2621   1.424       .  A
C1070      C1071   1.425       .  A
C1071      C1072   1.425       .  A
C1071      C1074   1.452       .  S
C1072      C2619   1.424       .  A
C1072      C1075   1.452       .  S
C1073      N1080   1.157       .  T
C1074      N1079   1.158       .  T
C1075      N1077   1.158       .  T
C1076      N1078   1.158       .  T
C1081      C1470   1.414       .  A
C1081      C2638   1.412   1_455  A
C1082      C1469   1.413   1_554  A
C1082      C1083   1.406       .  A
C1082      C1087   1.454       .  S
C1083      C1472   1.418   1_454  A
C1083      C1090   1.454       .  S
C1084      C2783   1.482       .  S
C1084      C1471   1.418   1_655  A
C1084      C2637   1.413       .  A
C1085      C2636   1.413       .  A
C1085      C1086   1.407       .  A
C1085      C1088   1.447       .  S
C1086      C2633   1.413       .  A
C1086      C1089   1.453       .  S
C1087      N1094   1.157       .  T
C1088      N1093   1.156       .  T
C1089      N1091   1.157       .  T
C1090      N1092   1.158       .  T
C1095      C1484   1.422   1_554  A
C1095      C2652   1.423       .  A
C1096      C1483   1.414       .  A
C1096      C1097   1.405       .  A
C1096      C1101   1.453       .  S
C1097      C1486   1.413       .  A
C1097      C1104   1.452       .  S
C1098      C1485   1.407   1_554  A
C1098      C2651   1.407       .  A
C1099      C2650   1.407       .  A
C1099      C1100   1.410   1_655  A
C1099      C1102   1.453   1_655  S
C1100      C2647   1.423   1_455  A
C1100      C1103   1.452       .  S
C1101      N1108   1.157       .  T
C1102      N1107   1.157       .  T
C1103      N1105   1.157       .  T
C1104      N1106   1.157       .  T
C1109      C1502   1.401       .  A
C1110      C1111   1.410       .  A
C1110      C1115   1.451   1_545  S
C1111      C1118   1.450   1_545  S
C1112      C1501   1.420       .  A
C1113      C1500   1.419       .  A
C1113      C1114   1.402       .  A
C1113      C1116   1.453       .  S
C1114      C1497   1.403       .  A
C1114      C1117   1.452       .  S
C1115      N1122   1.158       .  T
C1116      N1121   1.157       .  T
C1117      N1119   1.157       .  T
C1118      N1120   1.157       .  T
C1123      C1512   1.407       .  A
C1124      C1511   1.408       .  A
C1124      C1125   1.409       .  A
C1124      C1129   1.451       .  S
C1125      C1514   1.417       .  A
C1125      C1132   1.451       .  S
C1126      C1513   1.420       .  A
C1127      C1128   1.400       .  A
C1127      C1130   1.453       .  S
C1128      C1131   1.456       .  S
C1129      N1136   1.157       .  T
C1130      N1135   1.158   1_554  T
C1131      N1133   1.158   1_554  T
C1132      N1134   1.158       .  T
C1137      C2365   1.462       .  S
C1137      C2694   1.410       .  A
C1138      C1139   1.405       .  A
C1138      C1143   1.450       .  S
C1139      C1146   1.451       .  S
C1140      C2693   1.408       .  A
C1141      C2692   1.408       .  A
C1141      C1142   1.405       .  A
C1141      C1144   1.451       .  S
C1142      C2689   1.410       .  A
C1142      C1145   1.451       .  S
C1143      N1150   1.157       .  T
C1144      N1149   1.157       .  T
C1145      N1147   1.157       .  T
C1146      N1148   1.157       .  T
C1151      C1152   1.412       .  A
C1151      C1932   1.412       .  A
C1152      C1153   1.412       .  A
C1152      C1157   1.450       .  S
C1153      C1154   1.412       .  A
C1153      C1160   1.451       .  S
C1154      C1931   1.408       .  A
C1155      C1930   1.409       .  A
C1155      C1156   1.402       .  A
C1155      C1158   1.452       .  S
C1156      C1927   1.410   1_565  A
C1156      C1159   1.451       .  S
C1157      N1164   1.157       .  T
C1158      N1163   1.157       .  T
C1159      N1161   1.157       .  T
C1160      N1162   1.157       .  T
O1165     Ni1171   1.907   1_554  S
O1166     Ni1189   1.907       .  S
O1167      H1190   0.966       .  S
O1167     Ni1965   1.889   1_455  S
C1168      O1185   1.271       .  A
C1168      O2729   1.277       .  A
C1168      C1539   1.469       .  S
O1169     Ni1188   1.912       .  S
O1170     Ni1188   1.898       .  S
O1170      C1172   1.265       .  A
Ni1171     O1174   1.922       .  S
Ni1171     O1176   1.892       .  S
C1172      O2734   1.267       .  A
C1172      C1486   1.478       .  S
O1173     Ni1189   1.900       .  S
O1173      C1179   1.277       .  A
O1174      C2731   1.277       .  A
C1175      C1497   1.458       .  S
O1176      C1178   1.265       .  A
O1177     Ni1188   1.929       .  S
O1177      C2720   1.277       .  A
C1178      O2736   1.270   1_455  A
C1178      C1469   1.479       .  S
C1179      O2726   1.277       .  A
C1179      C1528   1.461       .  S
H1180      O1181   0.966   1_565  S
O1181     Ni1959   1.885       .  S
O1182     Ni1183   1.913       .  S
O1182      C2724   1.267   1_455  A
Ni1183     O1187   1.882       .  S
Ni1183     O1185   1.897   1_455  S
Ni1183     O1957   1.887   1_455  S
O1184     Ni1189   1.924       .  S
O1184      C2730   1.270       .  A
C1186      C1511   1.469       .  S
Ni1189     O1943   1.887       .  S
O1191      C1201   1.274       .  A
O1192     Ni1199   1.914       .  S
O1192      C1202   1.281   1_455  A
O1193     Ni1199   1.938       .  S
O1193      C1203   1.286   1_455  A
O1194      C1204   1.287       .  A
O1195     Ni1200   1.931   1_565  S
O1195      C2756   1.284       .  A
O1196      C2755   1.285       .  A
O1197      C2754   1.277       .  A
O1198     Ni1200   1.910   1_565  S
O1198      C2753   1.280       .  A
Ni1199    Ni1976   2.383   1_455  S
Ni1200    Ni1975   2.382   1_545  S
C1201      O2750   1.280   1_455  A
C1201      C3077   1.459       .  S
C1202      O2749   1.277       .  A
C1202      C1542   1.469       .  S
C1203      O2748   1.285       .  A
C1203      C1455   1.529       .  S
C1204      O2747   1.284   1_455  A
C1204      C1444   1.532       .  S
O1205     Ni1213   1.894   1_556  S
O1206     Ni1213   1.892       .  S
O1208     Ni1213   1.984   1_556  S
O1209      C1218   1.294   1_565  A
O1210     Ni1214   1.988       .  S
O1210      C1217   1.295   1_565  A
O1211     Ni1214   1.914       .  S
O1211      C1216   1.280       .  A
O1212     Ni1214   1.917       .  S
C1216      C1514   1.481       .  S
C1218      C1416   1.564       .  S
O1219     Ni1227   1.975       .  S
O1220     Ni2779   1.981       .  S
O1221     Ni1227   1.910   1_655  S
O1221      C2395   1.280       .  A
O1222     Ni1227   1.916       .  S
O1222      C2396   1.281   1_556  A
O1223     Ni1228   1.908       .  S
O1223      C1232   1.278       .  A
O1224     Ni1228   1.911       .  S
O1224      C1231   1.280       .  A
O1225     Ni1228   1.994       .  S
O1225      C1230   1.297       .  A
O1226     Ni2780   1.990   1_455  S
O1226      C1229   1.297       .  A
Ni1227     O2772   1.981   1_455  S
Ni1227    Ni2392   2.370   1_456  S
Ni1228     O2778   1.991       .  S
Ni1228    Ni2391   2.374       .  S
C1229      C1399   1.572       .  S
C1231      O2385   1.279       .  A
C1231      C2636   1.482       .  S
C1232      O2386   1.281       .  A
C1232      C1483   1.480       .  S
O1233     Ni1241   1.898       .  S
O1233      C1243   1.278       .  A
O1234     Ni2793   1.903       .  S
O1234      C1244   1.276       .  A
O1235     Ni1241   1.935       .  S
O1235      C2797   1.286   1_455  A
O1236     Ni1241   1.931       .  S
O1236      C2798   1.284   1_455  A
O1237     Ni1242   1.940       .  S
O1237      C1246   1.286       .  A
O1238     Ni1242   1.935       .  S
O1238      C1245   1.285       .  A
O1239     Ni1242   1.909       .  S
O1239      C1244   1.280       .  A
O1240     Ni2794   1.904   1_455  S
O1240      C1243   1.276       .  A
Ni1241     O2786   1.902   1_455  S
Ni1241    Ni2794   2.384   1_455  S
Ni1242     O2792   1.904       .  S
Ni1242    Ni2793   2.384       .  S
C1243      C1360   1.460       .  S
C1244      C1371   1.464       .  S
C1245      O2787   1.286       .  A
C1245      C1441   1.521       .  S
C1246      O2788   1.284       .  A
C1246      C1458   1.530       .  S
O1247     Ni1253   1.923       .  S
O1247      C1268   1.271       .  A
O1248     Ni1271   1.884       .  S
O1248      C1257   1.264       .  A
O1249      H1272   0.964       .  S
O1249     Ni1253   1.913       .  S
O1249     Ni1271   1.906       .  S
O1249     Ni1265   1.906       .  S
C1250      O1267   1.264       .  A
C1250      O1259   1.267       .  A
C1250      C1343   1.466       .  S
O1251     Ni1270   1.923       .  S
O1251      C1257   1.272       .  A
O1252     Ni1270   1.917       .  S
O1252      C1254   1.274       .  A
Ni1253     O1256   1.926       .  S
Ni1253     O1258   1.907       .  S
C1254      O1264   1.278       .  A
C1254      C1315   1.500       .  S
O1255     Ni1271   1.884       .  S
O1255      C1261   1.259       .  A
O1256      C1261   1.270       .  A
C1257      C1357   1.483       .  S
O1258      C1260   1.272       .  A
O1259     Ni1270   1.921       .  S
C1260      O1266   1.282       .  A
C1260      C1304   1.500       .  S
C1261      C1332   1.467       .  S
H1262      O1263   0.964       .  S
O1263     Ni1271   1.888       .  S
O1263     Ni1265   1.898       .  S
O1263     Ni1270   1.914       .  S
O1264     Ni1265   1.953       .  S
Ni1265     O1269   1.883       .  S
Ni1265     O1267   1.896       .  S
O1266     Ni1271   1.962       .  S
C1268      O1269   1.263       .  A
C1268      C1374   1.480       .  S
O1273     Ni1281   1.891       .  S
O1273      C1283   1.275       .  A
O1274      C1284   1.276       .  A
O1275     Ni1281   1.985       .  S
O1276     Ni1281   1.981       .  S
O1276      C1286   1.293       .  A
O1277     Ni1282   1.980   1_556  S
O1278     Ni1282   1.984       .  S
O1278      C1285   1.293       .  A
O1279     Ni1282   1.908   1_556  S
O1279      C1284   1.280       .  A
O1280      C1283   1.280       .  A
C1283      C1329   1.493       .  S
C1284      C1346   1.494       .  S
C1285      C1385   1.562       .  S
C1286      C1402   1.562       .  S
O1287     Ni1295   1.917   1_565  S
O1287      C1297   1.280       .  A
O1288      C1298   1.281       .  A
O1289      C1299   1.295       .  A
O1290     Ni1295   1.993       .  S
O1290      C1300   1.297       .  A
O1291      C1300   1.294   1_565  A
O1292     Ni1296   1.988       .  S
O1292      C1299   1.296       .  A
O1293     Ni1296   1.924       .  S
O1293      C1298   1.281       .  A
O1294      C1297   1.284       .  A
C1297      C1318   1.498       .  S
C1298      C1301   1.493       .  S
C1299      C1430   1.587       .  S
C1300      C1413   1.581       .  S
C1301      C1302   1.413       .  A
C1301      C1306   1.413       .  A
C1302      C1303   1.415       .  A
C1302      C1307   1.452       .  S
C1303      C1304   1.421       .  A
C1303      C1310   1.452       .  S
C1304      C1305   1.417       .  A
C1305      C1306   1.415       .  A
C1305      C1308   1.450       .  S
C1306      C1309   1.452       .  S
C1307      N1314   1.157       .  T
C1308      N1313   1.157       .  T
C1309      N1311   1.157       .  T
C1310      N1312   1.158       .  T
C1315      C1316   1.417       .  A
C1315      C1320   1.418       .  A
C1316      C1317   1.414       .  A
C1316      C1321   1.452       .  S
C1317      C1318   1.416       .  A
C1317      C1324   1.448       .  S
C1318      C1319   1.414       .  A
C1319      C1320   1.416       .  A
C1319      C1322   1.452       .  S
C1320      C1323   1.450       .  S
C1321      N1328   1.157       .  T
C1322      N1327   1.157       .  T
C1323      N1325   1.157       .  T
C1324      N1326   1.156       .  T
C1329      C1330   1.425       .  A
C1329      C1334   1.423       .  A
C1330      C1331   1.402       .  A
C1330      C1335   1.452       .  S
C1331      C1332   1.402       .  A
C1331      C1338   1.453       .  S
C1332      C1333   1.407       .  A
C1333      C1334   1.406       .  A
C1333      C1336   1.452       .  S
C1334      C1337   1.452       .  S
C1335      N1342   1.158       .  T
C1336      N1341   1.158       .  T
C1337      N1339   1.158       .  T
C1338      N1340   1.157       .  T
C1343      C1344   1.410       .  A
C1343      C1348   1.405       .  A
C1344      C1345   1.406       .  A
C1344      C1349   1.454       .  S
C1345      C1346   1.423       .  A
C1345      C1352   1.453       .  S
C1346      C1347   1.421       .  A
C1347      C1348   1.405       .  A
C1347      C1350   1.451       .  S
C1348      C1351   1.452       .  S
C1349      N1356   1.157       .  T
C1350      N1355   1.157       .  T
C1351      N1353   1.157       .  T
C1352      N1354   1.158       .  T
C1357      C1358   1.420       .  A
C1357      C1362   1.418       .  A
C1358      C1359   1.403       .  A
C1358      C1363   1.450       .  S
C1359      C1360   1.402       .  A
C1359      C1366   1.453       .  S
C1360      C1361   1.408       .  A
C1361      C1362   1.406       .  A
C1361      C1364   1.453       .  S
C1362      C1365   1.452       .  S
C1363      N1370   1.157       .  T
C1364      N1369   1.157       .  T
C1365      N1367   1.158       .  T
C1366      N1368   1.157       .  T
C1371      C1372   1.404       .  A
C1371      C1376   1.409       .  A
C1372      C1373   1.404       .  A
C1372      C1377   1.451       .  S
C1373      C1374   1.417       .  A
C1373      C1380   1.451       .  S
C1374      C1375   1.417       .  A
C1375      C1376   1.407       .  A
C1375      C1378   1.452       .  S
C1376      C1379   1.453       .  S
C1377      N1384   1.157       .  T
C1378      N1383   1.158       .  T
C1379      N1381   1.157       .  T
C1380      N1382   1.157       .  T
C1385      C1390   1.421   1_554  A
C1386      C1387   1.450       .  A
C1386      C1391   1.448       .  S
C1387      C1394   1.448       .  S
C1388      C1389   1.436   1_554  A
C1389      C1390   1.445       .  A
C1389      C1392   1.448       .  S
C1390      C1393   1.450       .  S
C1391      N1398   1.158       .  T
C1392      N1397   1.157       .  T
C1393      N1395   1.157       .  T
C1394      N1396   1.158       .  T
C1399      C1400   1.433       .  A
C1399      C1404   1.428       .  A
C1400      C1401   1.446       .  A
C1400      C1405   1.449       .  S
C1401      C1402   1.423       .  A
C1401      C1408   1.449       .  S
C1402      C1403   1.424       .  A
C1403      C1404   1.443       .  A
C1403      C1406   1.448       .  S
C1405      N1412   1.158       .  T
C1407      N1409   1.157       .  T
C1408      N1410   1.157       .  T
C1413      C1414   1.434       .  A
C1413      C1418   1.434       .  A
C1414      C1415   1.447       .  A
C1414      C1419   1.446       .  S
C1415      C1416   1.422       .  A
C1415      C1422   1.449   1_545  S
C1416      C1417   1.422       .  A
C1417      C1418   1.446       .  A
C1417      C1420   1.447       .  S
C1418      C1421   1.449       .  S
C1419      N1426   1.157       .  T
C1421      N1423   1.157       .  T
C1422      N1424   1.157       .  T
C1427      C1428   1.421       .  A
C1428      C1429   1.446       .  A
C1428      C1433   1.450       .  S
C1429      C1430   1.437       .  A
C1429      C1436   1.448       .  S
C1431      C1432   1.448       .  A
C1431      C1434   1.448       .  S
C1432      C1435   1.449       .  S
C1433      N1440   1.157       .  T
C1434      N1439   1.158       .  T
C1435      N1437   1.157       .  T
C1436      N1438   1.158       .  T
C1441      C2994   1.419       .  A
C1441      C1446   1.420       .  A
C1442      C2993   1.419       .  A
C1442      C1443   1.423       .  A
C1442      C1447   1.452       .  S
C1443      C1444   1.428   1_655  A
C1443      C1450   1.452       .  S
C1444      C2997   1.426       .  A
C1445      C2996   1.426       .  A
C1445      C1446   1.422       .  A
C1445      C1448   1.451       .  S
C1446      C1449   1.453       .  S
C1447      N1454   1.158       .  T
C1448      N1453   1.158       .  T
C1449      N1451   1.158       .  T
C1450      N1452   1.158       .  T
C1455      C1456   1.423   1_655  A
C1455      C3012   1.424       .  A
C1456      C1457   1.423       .  A
C1456      C1461   1.452       .  S
C1457      C3010   1.425   1_455  A
C1457      C1464   1.452       .  S
C1458      C3009   1.425       .  A
C1458      C1459   1.424       .  A
C1459      C1460   1.423       .  A
C1459      C1462   1.452       .  S
C1460      C3007   1.424       .  A
C1460      C1463   1.452       .  S
C1461      N1468   1.158       .  T
C1462      N1467   1.158       .  T
C1463      N1465   1.158       .  T
C1464      N1466   1.158       .  T
C1469      C3026   1.412   1_455  A
C1470      C1471   1.407       .  A
C1470      C1475   1.454       .  S
C1471      C1478   1.454       .  S
C1472      C2395   1.484       .  S
C1472      C3025   1.414       .  A
C1473      C3024   1.414       .  A
C1473      C1474   1.409       .  A
C1473      C1476   1.451       .  S
C1474      C3021   1.412       .  A
C1474      C1477   1.450       .  S
C1475      N1482   1.158       .  T
C1476      N1481   1.157       .  T
C1477      N1479   1.157       .  T
C1478      N1480   1.158       .  T
C1483      C3040   1.413       .  A
C1484      C1485   1.406       .  A
C1484      C1489   1.451       .  S
C1485      C1492   1.454       .  S
C1486      C3039   1.412       .  A
C1487      C3038   1.413   1_455  A
C1487      C1488   1.409       .  A
C1487      C1490   1.453       .  S
C1488      C3035   1.413   1_455  A
C1488      C1491   1.448       .  S
C1489      N1496   1.157       .  T
C1490      N1495   1.158       .  T
C1491      N1493   1.156       .  T
C1492      N1494   1.157       .  T
C1498      C1499   1.408       .  A
C1498      C1503   1.450   1_545  S
C1499      C1506   1.451   1_545  S
C1501      C1502   1.402       .  A
C1501      C1504   1.452       .  S
C1502      C1505   1.452       .  S
C1503      N1510   1.157       .  T
C1504      N1509   1.157       .  T
C1505      N1507   1.157       .  T
C1506      N1508   1.157       .  T
C1512      C1513   1.408       .  A
C1512      C1517   1.452       .  S
C1513      C1520   1.452       .  S
C1515      C1516   1.401       .  A
C1515      C1518   1.453       .  S
C1516      C1519   1.456       .  S
C1517      N1524   1.157       .  T
C1518      N1523   1.158       .  T
C1519      N1521   1.157       .  T
C1520      N1522   1.158       .  T
C1525      C2753   1.459       .  S
C1525      C3082   1.409       .  A
C1526      C1527   1.405       .  A
C1526      C1531   1.450       .  S
C1527      C1534   1.451       .  S
C1528      C3081   1.409       .  A
C1529      C3080   1.409       .  A
C1529      C1530   1.405       .  A
C1529      C1532   1.450       .  S
C1530      C3077   1.409       .  A
C1530      C1533   1.451       .  S
C1531      N1538   1.157       .  T
C1532      N1537   1.157       .  T
C1533      N1535   1.157       .  T
C1534      N1536   1.157       .  T
C1539      C1540   1.411       .  A
C1539      C2320   1.410       .  A
C1540      C1541   1.410       .  A
C1540      C1545   1.451       .  S
C1541      C1542   1.410       .  A
C1541      C1548   1.451       .  S
C1542      C2319   1.408       .  A
C1543      C2318   1.409   1_565  A
C1543      C1544   1.401       .  A
C1543      C1546   1.452       .  S
C1544      C2315   1.409   1_565  A
C1544      C1547   1.453       .  S
C1545      N1552   1.157       .  T
C1546      N1551   1.157       .  T
C1547      N1549   1.157       .  T
C1548      N1550   1.158       .  T
O1553     Ni1559   1.915       .  S
O1553      C1962   1.266       .  A
O1554     Ni1577   1.881       .  S
O1554      C2339   1.256       .  A
O1555      H1578   0.965   1_565  S
O1555     Ni2335   1.905       .  S
O1555     Ni1959   1.921   1_565  S
C1556      O1573   1.276       .  A
C1556      C1927   1.469       .  S
O1557     Ni1576   1.914   1_556  S
O1557      C1951   1.264       .  A
O1558     Ni1576   1.902       .  S
O1558      C1560   1.263       .  A
Ni1559     O1562   1.928       .  S
Ni1559     O1564   1.901       .  S
Ni1559     O2331   1.913       .  S
C1560      C1874   1.470       .  S
O1561     Ni1577   1.896   1_455  S
O1561      C1567   1.273       .  A
C1563      O2330   1.268   1_545  A
C1563      O1945   1.262       .  A
C1563      C1885   1.489       .  S
O1564      C1566   1.266       .  A
O1565     Ni1576   1.922       .  S
C1566      C1857   1.480       .  S
C1567      C1916   1.466       .  S
H1568      O1569   0.966       .  S
O1569     Ni1965   1.926   1_554  S
O1569     Ni2352   1.917       .  S
O1570     Ni1571   1.915       .  S
Ni1571     O1575   1.896       .  S
Ni1571     O1573   1.904       .  S
Ni1571     O1943   1.919   1_544  S
O1572     Ni1577   1.907       .  S
C1574      O1941   1.264       .  A
C1574      O2351   1.258       .  A
C1574      C1899   1.458       .  S
O1575      C2350   1.262   1_545  A
Ni1576     O2345   1.899   1_545  S
Ni1577     O1957   1.929       .  S
O1579     Ni2363   1.906       .  S
O1579      C1589   1.276       .  A
O1580     Ni1587   1.903       .  S
O1580      C1590   1.279       .  A
O1581     Ni1587   1.948   1_545  S
O1581      C1591   1.288       .  A
O1582     Ni2363   1.937       .  S
O1582      C1592   1.285       .  A
O1583     Ni1588   1.940       .  S
O1584     Ni2364   1.932   1_545  S
O1585     Ni2364   1.909   1_545  S
O1586     Ni1588   1.912       .  S
Ni1587     O2355   1.902       .  S
Ni1587     O2358   1.945       .  S
Ni1588     O2360   1.937       .  S
Ni1588     O2361   1.913       .  S
C1590      C1930   1.468       .  S
C1591      C1843   1.528       .  S
C1592      C1832   1.532       .  S
O1593     Ni1601   1.898       .  S
O1593      C2379   1.277       .  A
O1594     Ni1601   1.889       .  S
O1594      C2768   1.276   1_545  A
O1595     Ni1989   1.981   1_554  S
O1595      C2381   1.293       .  A
O1596     Ni1601   1.989       .  S
O1596      C2382   1.295       .  A
O1597     Ni1990   1.981       .  S
O1597      C1606   1.293       .  A
O1598     Ni1602   1.991       .  S
O1598      C1605   1.296       .  A
O1599     Ni1602   1.904       .  S
O1599      C1604   1.279       .  A
O1600     Ni1602   1.893   1_556  S
O1600      C1991   1.276       .  A
Ni1601     O1983   1.984       .  S
Ni1601    Ni2766   2.377   1_545  S
Ni1602     O1985   1.984   1_554  S
Ni1602    Ni2765   2.374       .  S
C1603      O2369   1.277       .  A
C1603      O1988   1.276       .  A
C1603      C2664   1.474       .  S
C1604      O2758   1.276       .  A
C1604      C1902   1.481       .  S
C1605      O2371   1.291       .  A
C1605      C2591   1.561       .  S
C1606      O2372   1.296       .  A
C1606      C1804   1.567       .  S
O1607     Ni1615   1.976       .  S
O1607      C2005   1.292       .  A
O1608      C2006   1.295       .  A
O1609     Ni1615   1.915       .  S
O1610     Ni1615   1.917       .  S
O1611     Ni1616   1.904       .  S
O1611      C1620   1.278   1_655  A
O1612     Ni1616   1.902       .  S
O1612      C1619   1.278   1_554  A
O1613     Ni1616   1.987       .  S
O1613      C1618   1.295       .  A
O1614      C1617   1.296   1_554  A
C1617      O1995   1.292       .  A
C1617      C1787   1.563       .  S
C1618      O1996   1.295   1_554  A
C1618      C2164   1.573       .  S
C1620      C1871   1.501       .  S
O1621     Ni1629   1.898       .  S
O1621      C1631   1.278       .  A
O1622      C1632   1.275       .  A
O1623     Ni1629   1.946       .  S
O1624     Ni1629   1.944       .  S
O1625     Ni1630   1.936       .  S
O1625      C1634   1.285   1_655  A
O1626     Ni1630   1.931       .  S
O1626      C1633   1.284   1_655  A
O1627     Ni1630   1.910       .  S
O1627      C1632   1.280       .  A
O1628      C1631   1.278       .  A
C1631      C1748   1.466       .  S
C1632      C1759   1.462       .  S
C1633      C1829   1.529       .  S
C1634      C1846   1.535       .  S
O1635     Ni1641   1.922       .  S
O1635      C1656   1.271       .  A
O1636     Ni1659   1.884       .  S
O1636      C1645   1.263       .  A
O1637      H1660   0.962       .  S
O1637     Ni1641   1.914       .  S
O1637     Ni1659   1.897       .  S
O1637     Ni1653   1.894       .  S
C1638      O1655   1.263       .  A
C1638      O1647   1.265       .  A
C1638      C1731   1.465       .  S
O1639     Ni1658   1.924       .  S
O1639      C1645   1.271       .  A
O1640     Ni1658   1.916       .  S
O1640      C1642   1.276       .  A
Ni1641     O1644   1.921       .  S
Ni1641     O1646   1.909       .  S
C1642      O1652   1.282       .  A
C1642      C1703   1.497       .  S
O1643     Ni1659   1.886       .  S
O1643      C1649   1.261       .  A
O1644      C1649   1.271       .  A
C1645      C1745   1.482       .  S
O1646      C1648   1.271       .  A
O1647     Ni1658   1.919       .  S
C1648      O1654   1.278       .  A
C1648      C1692   1.495       .  S
C1649      C1720   1.458       .  S
H1650      O1651   0.966       .  S
O1651     Ni1659   1.899       .  S
O1651     Ni1653   1.900       .  S
O1651     Ni1658   1.916       .  S
O1652     Ni1653   1.960       .  S
Ni1653     O1657   1.883       .  S
Ni1653     O1655   1.905       .  S
O1654     Ni1659   1.956       .  S
C1656      O1657   1.264       .  A
C1656      C1762   1.476       .  S
O1661     Ni1669   1.898       .  S
O1661      C1671   1.278       .  A
O1662     Ni2057   1.904       .  S
O1662      C1672   1.277       .  A
O1663     Ni1669   1.977       .  S
O1663      C2061   1.293       .  A
O1664     Ni1669   1.985   1_556  S
O1664      C1674   1.295       .  A
O1665     Ni1670   1.982       .  S
O1665      C2062   1.294       .  A
O1666     Ni1670   1.988       .  S
O1666      C1673   1.295       .  A
O1667     Ni1670   1.907       .  S
O1667      C1672   1.280       .  A
O1668     Ni2058   1.907   1_554  S
O1668      C1671   1.278       .  A
Ni1669     O2050   1.901   1_554  S
Ni1669    Ni2058   2.368   1_554  S
Ni1670     O2056   1.907       .  S
Ni1670    Ni2057   2.368       .  S
C1671      C1717   1.492       .  S
C1672      C1734   1.495       .  S
C1673      O2051   1.293       .  A
C1673      C1773   1.568       .  S
C1674      O2053   1.295       .  A
C1674      C1790   1.576       .  S
O1675     Ni1683   1.922       .  S
O1675      C1685   1.281       .  A
O1676     Ni2459   1.912       .  S
O1676      C1686   1.279       .  A
O1677     Ni2459   1.991       .  S
O1677      C1687   1.297       .  A
O1678     Ni1683   1.973       .  S
O1678      C1688   1.292       .  A
O1679     Ni2460   1.992       .  S
O1679      C1688   1.297       .  A
O1680     Ni1684   1.976       .  S
O1680      C1687   1.292   1_565  A
O1681     Ni1684   1.927   1_545  S
O1681      C1686   1.282       .  A
O1682     Ni2460   1.919       .  S
O1682      C1685   1.280       .  A
Ni1683     O2452   1.925       .  S
Ni1683     O2453   1.978       .  S
Ni1683    Ni2460   2.370       .  S
Ni1684     O2455   1.981       .  S
Ni1684     O2458   1.931       .  S
Ni1684    Ni2459   2.370   1_565  S
C1685      C1706   1.488       .  S
C1686      C1689   1.484       .  S
C1687      C1818   1.584       .  S
C1688      C1801   1.578       .  S
C1689      C1690   1.410       .  A
C1689      C1694   1.411       .  A
C1690      C1691   1.414       .  A
C1690      C1695   1.452       .  S
C1691      C1692   1.419       .  A
C1691      C1698   1.451       .  S
C1692      C1693   1.416       .  A
C1693      C1694   1.413       .  A
C1693      C1696   1.449       .  S
C1694      C1697   1.452       .  S
C1695      N1702   1.157       .  T
C1696      N1701   1.157       .  T
C1697      N1699   1.157       .  T
C1698      N1700   1.157       .  T
C1703      C1704   1.419       .  A
C1703      C1708   1.417       .  A
C1704      C1705   1.414       .  A
C1704      C1709   1.451       .  S
C1705      C1706   1.411       .  A
C1705      C1712   1.452       .  S
C1706      C1707   1.412       .  A
C1707      C1708   1.414       .  A
C1707      C1710   1.453       .  S
C1708      C1711   1.449       .  S
C1709      N1716   1.157       .  T
C1710      N1715   1.157       .  T
C1711      N1713   1.157       .  T
C1712      N1714   1.157       .  T
C1717      C1718   1.424       .  A
C1717      C1722   1.422       .  A
C1718      C1719   1.401       .  A
C1718      C1723   1.451       .  S
C1719      C1720   1.400       .  A
C1719      C1726   1.453       .  S
C1720      C1721   1.407       .  A
C1721      C1722   1.406       .  A
C1721      C1724   1.453       .  S
C1722      C1725   1.452       .  S
C1723      N1730   1.157       .  T
C1724      N1729   1.158       .  T
C1725      N1727   1.158       .  T
C1726      N1728   1.157       .  T
C1731      C1732   1.407       .  A
C1731      C1736   1.403       .  A
C1732      C1733   1.409       .  A
C1732      C1737   1.453       .  S
C1733      C1734   1.424       .  A
C1733      C1740   1.452       .  S
C1734      C1735   1.422       .  A
C1735      C1736   1.404       .  A
C1735      C1738   1.452       .  S
C1736      C1739   1.452       .  S
C1737      N1744   1.157       .  T
C1738      N1743   1.157       .  T
C1739      N1741   1.157       .  T
C1740      N1742   1.158       .  T
C1745      C1746   1.418       .  A
C1745      C1750   1.416       .  A
C1746      C1747   1.404       .  A
C1746      C1751   1.452       .  S
C1747      C1748   1.406       .  A
C1747      C1754   1.453       .  S
C1748      C1749   1.410       .  A
C1749      C1750   1.407       .  A
C1749      C1752   1.453       .  S
C1750      C1753   1.451       .  S
C1751      N1758   1.157       .  T
C1752      N1757   1.157       .  T
C1753      N1755   1.157       .  T
C1754      N1756   1.157       .  T
C1759      C1760   1.406       .  A
C1759      C1764   1.408       .  A
C1760      C1761   1.405       .  A
C1760      C1765   1.451       .  S
C1761      C1762   1.416       .  A
C1761      C1768   1.452       .  S
C1762      C1763   1.415       .  A
C1763      C1764   1.404       .  A
C1763      C1766   1.452       .  S
C1764      C1767   1.453       .  S
C1765      N1772   1.157       .  T
C1766      N1771   1.157       .  T
C1767      N1769   1.157       .  T
C1768      N1770   1.157       .  T
C1773      C2162   1.427       .  A
C1773      C1778   1.426       .  A
C1774      C2161   1.427       .  A
C1774      C1775   1.448       .  A
C1774      C1779   1.448       .  S
C1775      C2164   1.430       .  A
C1775      C1782   1.448       .  S
C1776      C2006   1.573       .  S
C1776      C2163   1.430       .  A
C1776      C1777   1.428       .  A
C1777      C1778   1.443       .  A
C1777      C1780   1.447       .  S
C1778      C1781   1.450       .  S
C1779      N1786   1.158       .  T
C1780      N1785   1.157       .  T
C1781      N1783   1.157       .  T
C1782      N1784   1.157       .  T
C1787      C1788   1.425       .  A
C1787      C1792   1.422   1_556  A
C1788      C1789   1.446       .  A
C1788      C1793   1.449       .  S
C1789      C1790   1.431       .  A
C1789      C1796   1.448       .  S
C1790      C1791   1.433   1_556  A
C1791      C1792   1.445       .  A
C1791      C1794   1.447       .  S
C1792      C2183   1.448       .  S
C1793      N1800   1.157       .  T
C1794      N2187   1.157       .  T
C1795      C2180   1.448       .  S
C1795      N1797   1.157       .  T
C1796      N1798   1.157       .  T
N1799      C2182   1.157       .  T
C1801      C1802   1.434       .  A
C1801      C1806   1.432       .  A
C1802      C1803   1.444       .  A
C1802      C1807   1.449       .  S
C1803      C1804   1.422       .  A
C1803      C1810   1.447       .  S
C1804      C1805   1.426       .  A
C1805      C1806   1.447       .  A
C1805      C1808   1.449       .  S
C1806      C1809   1.449       .  S
C1807      N1814   1.158       .  T
C1808      N2589   1.157       .  T
C1809      N1811   1.158       .  T
C1810      N1812   1.157       .  T
N1813      C2584   1.157       .  T
C1815      C2381   1.563       .  S
C1815      C1816   1.423       .  A
C1815      C2596   1.421   1_545  A
C1816      C1817   1.446       .  A
C1816      C1821   1.449       .  S
C1817      C1818   1.435       .  A
C1817      C1824   1.448       .  S
C1818      C2595   1.438   1_545  A
C1819      C2594   1.436       .  A
C1819      C1820   1.447       .  A
C1819      C1822   1.448       .  S
C1820      C2591   1.421       .  A
C1820      C1823   1.449       .  S
C1821      N1828   1.157       .  T
C1822      N1827   1.158       .  T
C1823      N1825   1.157       .  T
C1824      N1826   1.158       .  T
C1829      C1834   1.422       .  A
C1830      C1831   1.424       .  A
C1830      C1835   1.452       .  S
C1831      C1832   1.424       .  A
C1831      C1838   1.452       .  S
C1833      C1834   1.425       .  A
C1833      C1836   1.452       .  S
C1834      C1837   1.452       .  S
C1835      N1842   1.158       .  T
C1836      N1841   1.158       .  T
C1837      N1839   1.158       .  T
C1838      N1840   1.158       .  T
C1843      C1844   1.421       .  A
C1844      C1845   1.426       .  A
C1844      C1849   1.451       .  S
C1845      C1852   1.451       .  S
C1846      C1847   1.427   1_455  A
C1847      C1848   1.424       .  A
C1847      C1850   1.452       .  S
C1848      C1851   1.453       .  S
C1849      N1856   1.157       .  T
C1850      N1855   1.158       .  T
C1851      N1853   1.158       .  T
C1852      N1854   1.158       .  T
C1857      C2246   1.410       .  A
C1858      C2245   1.411   1_554  A
C1858      C1859   1.405       .  A
C1858      C1863   1.453       .  S
C1859      C2248   1.418   1_554  A
C1859      C1866   1.454       .  S
C1860      C2247   1.419       .  A
C1861      C1862   1.411       .  A
C1861      C1864   1.452       .  S
C1862      C1865   1.452       .  S
C1863      N1870   1.157       .  T
C1864      N1869   1.157       .  T
C1865      N1867   1.158       .  T
C1866      N1868   1.157       .  T
C1871      C2260   1.422   1_454  A
C1872      C2259   1.422       .  A
C1872      C1873   1.407   1_455  A
C1872      C1877   1.451       .  S
C1873      C2262   1.406       .  A
C1873      C1880   1.454       .  S
C1874      C2261   1.407   1_554  A
C1875      C1876   1.410       .  A
C1875      C1878   1.452       .  S
C1876      C1879   1.452       .  S
C1877      N1884   1.158       .  T
C1878      N1883   1.157       .  T
C1879      N1881   1.158       .  T
C1880      N1882   1.157       .  T
C1885      C2662   1.416       .  A
C1885      C2278   1.422       .  A
C1886      C2661   1.409       .  A
C1886      C1887   1.399       .  A
C1886      C1891   1.455       .  S
C1887      C2664   1.417       .  A
C1887      C1894   1.454       .  S
C1888      C2379   1.474       .  S
C1888      C2663   1.409       .  A
C1888      C2277   1.411       .  A
C1889      C2276   1.413       .  A
C1889      C1890   1.403       .  A
C1889      C1892   1.455   1_556  S
C1890      C2273   1.419       .  A
C1890      C1893   1.454   1_556  S
C1891      N1898   1.157       .  T
C1892      N1897   1.158       .  T
C1893      N1895   1.158       .  T
C1894      N1896   1.158       .  T
C1899      C2288   1.403       .  A
C1899      C2680   1.409       .  A
C1900      C2287   1.405       .  A
C1900      C1901   1.404       .  A
C1900      C1905   1.452       .  S
C1901      C2290   1.420       .  A
C1901      C1908   1.452       .  S
C1902      C2289   1.420       .  A
C1902      C2679   1.419       .  A
C1903      C2678   1.420   1_546  A
C1903      C1904   1.401   1_556  A
C1903      C1906   1.455       .  S
C1904      C2675   1.410   1_545  A
C1904      C1907   1.455   1_554  S
C1905      N1912   1.157       .  T
C1906      N1911   1.158       .  T
C1907      N1909   1.157       .  T
C1908      N1910   1.158       .  T
C1913      C2690   1.409       .  A
C1914      C2689   1.408   1_545  A
C1914      C1915   1.404       .  A
C1914      C1919   1.451       .  S
C1915      C2692   1.408   1_545  A
C1915      C1922   1.451       .  S
C1916      C2691   1.409       .  A
C1917      C1918   1.407       .  A
C1917      C1920   1.451       .  S
C1918      C1921   1.451       .  S
C1919      N1926   1.157       .  T
C1920      N1925   1.157       .  T
C1921      N1923   1.157       .  T
C1922      N1924   1.157       .  T
C1927      C1928   1.410       .  A
C1928      C1929   1.409       .  A
C1928      C1933   1.450       .  S
C1929      C1930   1.411   1_545  A
C1929      C1936   1.451       .  S
C1931      C1932   1.404       .  A
C1931      C1934   1.450       .  S
C1932      C1935   1.453       .  S
C1933      N1940   1.157       .  T
C1934      N1939   1.156       .  T
C1935      N1937   1.157       .  T
C1936      N1938   1.157       .  T
O1941     Ni1947   1.915   1_554  S
O1942     Ni1965   1.883       .  S
O1942      C2727   1.258       .  A
O1943      H1966   0.966   1_565  S
O1943     Ni2723   1.903       .  S
C1944      O1961   1.279       .  A
C1944      C2315   1.464       .  S
O1945     Ni1964   1.910       .  S
O1946     Ni1964   1.896       .  S
O1946      C1948   1.262       .  A
Ni1947     O1950   1.926       .  S
Ni1947     O1952   1.900       .  S
Ni1947     O2719   1.918       .  S
C1948      C2262   1.463       .  S
O1949     Ni1965   1.900   1_455  S
O1949      C1955   1.273       .  A
C1951      O2718   1.268   1_545  A
C1951      C2273   1.491       .  S
O1952      C1954   1.266       .  A
O1953     Ni1964   1.915       .  S
C1954      C2245   1.481       .  S
C1955      C2304   1.469       .  S
H1956      O1957   0.966       .  S
O1957     Ni2740   1.915       .  S
O1958     Ni1959   1.909       .  S
Ni1959     O1963   1.905       .  S
Ni1959     O1961   1.909       .  S
O1960     Ni1965   1.910       .  S
C1962      O2739   1.260       .  A
C1962      C2287   1.460       .  S
O1963      C2738   1.264   1_545  A
Ni1964     O2733   1.897       .  S
O1967     Ni2751   1.912       .  S
O1967      C1977   1.278       .  A
O1968     Ni1975   1.900       .  S
O1968      C1978   1.278   1_565  A
O1969     Ni1975   1.945   1_545  S
O1969      C1979   1.288       .  A
O1970     Ni2751   1.938       .  S
O1970      C1980   1.285       .  A
O1971     Ni1976   1.937       .  S
O1972     Ni2752   1.931       .  S
O1973     Ni2752   1.909       .  S
O1974     Ni1976   1.910       .  S
Ni1975     O2743   1.898       .  S
Ni1975     O2746   1.941       .  S
Ni1976     O2748   1.934       .  S
Ni1976     O2749   1.909       .  S
C1978      C2318   1.464       .  S
C1979      C2231   1.531       .  S
C1980      C2220   1.525       .  S
O1981     Ni1989   1.894       .  S
O1981      C2767   1.276       .  A
O1982     Ni1989   1.885       .  S
O1982      C2380   1.275   1_545  A
O1983      C2769   1.294       .  A
O1984     Ni1989   1.987       .  S
O1984      C2770   1.294       .  A
O1985      C1994   1.294       .  A
O1986     Ni1990   1.991       .  S
O1986      C1993   1.296       .  A
O1987     Ni1990   1.902       .  S
O1987      C1992   1.278       .  A
O1988     Ni1990   1.890       .  S
Ni1989    Ni2378   2.375   1_545  S
Ni1990    Ni2377   2.373       .  S
C1991      O2757   1.278       .  A
C1991      C3052   1.476       .  S
C1992      O2370   1.276       .  A
C1992      C2290   1.483       .  S
C1993      O2759   1.293       .  A
C1993      C2979   1.565       .  S
C1994      O2760   1.294       .  A
C1994      C2192   1.565       .  S
O1995     Ni2003   1.977       .  S
O1997     Ni2003   1.917       .  S
O1998     Ni2003   1.921       .  S
O1999     Ni2004   1.898       .  S
O1999      C2008   1.277   1_655  A
O2000     Ni2004   1.898       .  S
O2000      C2007   1.277       .  A
O2001     Ni2004   1.986       .  S
O2001      C2006   1.295       .  A
O2002      C2005   1.296       .  A
C2005      C2175   1.563       .  S
C2008      C2259   1.496       .  S
O2009     Ni2017   1.899       .  S
O2009      C2019   1.278       .  A
O2010      C2020   1.275       .  A
O2011     Ni2017   1.941       .  S
O2012     Ni2017   1.939       .  S
O2013     Ni2018   1.939       .  S
O2013      C2022   1.286   1_655  A
O2014     Ni2018   1.934       .  S
O2014      C2021   1.284   1_655  A
O2015     Ni2018   1.907       .  S
O2015      C2020   1.280       .  A
O2016      C2019   1.278       .  A
C2019      C2136   1.467       .  S
C2020      C2147   1.463       .  S
C2021      C2217   1.534       .  S
C2022      C2234   1.531       .  S
O2023     Ni2029   1.917       .  S
O2023      C2044   1.270       .  A
O2024     Ni2047   1.879       .  S
O2024      C2033   1.264       .  A
O2025      H2048   0.961       .  S
O2025     Ni2029   1.911       .  S
O2025     Ni2047   1.893       .  S
O2025     Ni2041   1.898       .  S
C2026      O2043   1.264       .  A
C2026      O2035   1.266       .  A
C2026      C2119   1.464       .  S
O2027     Ni2046   1.923       .  S
O2027      C2033   1.271       .  A
O2028     Ni2046   1.912       .  S
O2028      C2030   1.275       .  A
Ni2029     O2032   1.920       .  S
Ni2029     O2034   1.908       .  S
C2030      O2040   1.281       .  A
C2030      C2091   1.490       .  S
O2031     Ni2047   1.891       .  S
O2031      C2037   1.261       .  A
O2032      C2037   1.268       .  A
C2033      C2133   1.480       .  S
O2034      C2036   1.273       .  A
O2035     Ni2046   1.921       .  S
C2036      O2042   1.282       .  A
C2036      C2080   1.495       .  S
C2037      C2108   1.460       .  S
H2038      O2039   0.966       .  S
O2039     Ni2047   1.898       .  S
O2039     Ni2041   1.896       .  S
O2039     Ni2046   1.914       .  S
O2040     Ni2041   1.956       .  S
Ni2041     O2045   1.880       .  S
Ni2041     O2043   1.903       .  S
O2042     Ni2047   1.962       .  S
C2044      O2045   1.265       .  A
C2044      C2150   1.477       .  S
O2049     Ni2057   1.900       .  S
O2049      C2059   1.278       .  A
O2050      C2060   1.277       .  A
O2051     Ni2057   1.978       .  S
O2052     Ni2057   1.987       .  S
O2052      C2062   1.296       .  A
O2053     Ni2058   1.984       .  S
O2054     Ni2058   1.989   1_554  S
O2054      C2061   1.295       .  A
O2055     Ni2058   1.908       .  S
O2055      C2060   1.280       .  A
O2056      C2059   1.278       .  A
C2059      C2105   1.493       .  S
C2060      C2122   1.492       .  S
C2061      C2161   1.568       .  S
C2062      C2178   1.576       .  S
O2063     Ni2071   1.918       .  S
O2063      C2073   1.279       .  A
O2064     Ni2847   1.912       .  S
O2064      C2074   1.279       .  A
O2065     Ni2847   1.994       .  S
O2065      C2075   1.298       .  A
O2066     Ni2071   1.978       .  S
O2066      C2076   1.293       .  A
O2067     Ni2848   1.989       .  S
O2067      C2076   1.296       .  A
O2068     Ni2072   1.980       .  S
O2068      C2075   1.293   1_565  A
O2069     Ni2072   1.929   1_545  S
O2069      C2074   1.282       .  A
O2070     Ni2848   1.918       .  S
O2070      C2073   1.280       .  A
Ni2071     O2840   1.921       .  S
Ni2071     O2841   1.984       .  S
Ni2071    Ni2848   2.369       .  S
Ni2072     O2843   1.981       .  S
Ni2072     O2846   1.931       .  S
Ni2072    Ni2847   2.369   1_565  S
C2073      C2094   1.483       .  S
C2074      C2077   1.486       .  S
C2075      C2206   1.587       .  S
C2076      C2189   1.582       .  S
C2077      C2078   1.410       .  A
C2077      C2082   1.412       .  A
C2078      C2079   1.414       .  A
C2078      C2083   1.451       .  S
C2079      C2080   1.419       .  A
C2079      C2086   1.451       .  S
C2080      C2081   1.416       .  A
C2081      C2082   1.413       .  A
C2081      C2084   1.449       .  S
C2082      C2085   1.453       .  S
C2083      N2090   1.157       .  T
C2084      N2089   1.157       .  T
C2085      N2087   1.157       .  T
C2086      N2088   1.157       .  T
C2091      C2092   1.417       .  A
C2091      C2096   1.416       .  A
C2092      C2093   1.413       .  A
C2092      C2097   1.452       .  S
C2093      C2094   1.411       .  A
C2093      C2100   1.452       .  S
C2094      C2095   1.410       .  A
C2095      C2096   1.412       .  A
C2095      C2098   1.453       .  S
C2096      C2099   1.449       .  S
C2097      N2104   1.157       .  T
C2098      N2103   1.157       .  T
C2099      N2101   1.157       .  T
C2100      N2102   1.157       .  T
C2105      C2106   1.424       .  A
C2105      C2110   1.423       .  A
C2106      C2107   1.402       .  A
C2106      C2111   1.450       .  S
C2107      C2108   1.400       .  A
C2107      C2114   1.454       .  S
C2108      C2109   1.407       .  A
C2109      C2110   1.407       .  A
C2109      C2112   1.453       .  S
C2110      C2113   1.452       .  S
C2111      N2118   1.157       .  T
C2112      N2117   1.157       .  T
C2113      N2115   1.158       .  T
C2114      N2116   1.157       .  T
C2119      C2120   1.407       .  A
C2119      C2124   1.404       .  A
C2120      C2121   1.407       .  A
C2120      C2125   1.452       .  S
C2121      C2122   1.422       .  A
C2121      C2128   1.452       .  S
C2122      C2123   1.421       .  A
C2123      C2124   1.405       .  A
C2123      C2126   1.452       .  S
C2124      C2127   1.452       .  S
C2125      N2132   1.157       .  T
C2126      N2131   1.157       .  T
C2127      N2129   1.157       .  T
C2128      N2130   1.158       .  T
C2133      C2134   1.417       .  A
C2133      C2138   1.416       .  A
C2134      C2135   1.402       .  A
C2134      C2139   1.453       .  S
C2135      C2136   1.406       .  A
C2135      C2142   1.451       .  S
C2136      C2137   1.410       .  A
C2137      C2138   1.408       .  A
C2137      C2140   1.452       .  S
C2138      C2141   1.452       .  S
C2139      N2146   1.157       .  T
C2140      N2145   1.157       .  T
C2141      N2143   1.157       .  T
C2142      N2144   1.157       .  T
C2147      C2148   1.406       .  A
C2147      C2152   1.409       .  A
C2148      C2149   1.402       .  A
C2148      C2153   1.452       .  S
C2149      C2150   1.416       .  A
C2149      C2156   1.453       .  S
C2150      C2151   1.416       .  A
C2151      C2152   1.405       .  A
C2151      C2154   1.452       .  S
C2152      C2155   1.452       .  S
C2153      N2160   1.157       .  T
C2154      N2159   1.158       .  T
C2155      N2157   1.157       .  T
C2156      N2158   1.157       .  T
C2161      C2166   1.426   1_554  A
C2162      C2163   1.448       .  A
C2162      C2167   1.448       .  S
C2163      C2170   1.448       .  S
C2164      C2165   1.428   1_554  A
C2165      C2166   1.444       .  A
C2165      C2168   1.448       .  S
C2166      C2169   1.449       .  S
C2167      N2174   1.158       .  T
C2168      N2173   1.157       .  T
C2169      N2171   1.157       .  T
C2170      N2172   1.157       .  T
C2175      C2176   1.424       .  A
C2175      C2180   1.422       .  A
C2176      C2177   1.446       .  A
C2176      C2181   1.449       .  S
C2177      C2178   1.432       .  A
C2177      C2184   1.448       .  S
C2178      C2179   1.432       .  A
C2179      C2180   1.445       .  A
C2179      C2182   1.446       .  S
C2181      N2188   1.157       .  T
C2183      N2185   1.157       .  T
C2184      N2186   1.157       .  T
C2189      C2190   1.436       .  A
C2189      C2194   1.435       .  A
C2190      C2191   1.445       .  A
C2190      C2195   1.449       .  S
C2191      C2192   1.421       .  A
C2191      C2198   1.447       .  S
C2192      C2193   1.424       .  A
C2193      C2194   1.447       .  A
C2193      C2196   1.449       .  S
C2194      C2197   1.448       .  S
C2195      N2202   1.158       .  T
C2196      N2977   1.157       .  T
C2197      N2199   1.158       .  T
C2198      N2200   1.156       .  T
N2201      C2972   1.157       .  T
C2203      C2769   1.566       .  S
C2203      C2204   1.423       .  A
C2203      C2984   1.422   1_545  A
C2204      C2205   1.447       .  A
C2204      C2209   1.449       .  S
C2205      C2206   1.436       .  A
C2205      C2212   1.448       .  S
C2206      C2983   1.438   1_545  A
C2207      C2982   1.437       .  A
C2207      C2208   1.448       .  A
C2207      C2210   1.448       .  S
C2208      C2979   1.422       .  A
C2208      C2211   1.448       .  S
C2209      N2216   1.157       .  T
C2210      N2215   1.158       .  T
C2211      N2213   1.157       .  T
C2212      N2214   1.157       .  T
C2217      C2222   1.427       .  A
C2218      C2219   1.423       .  A
C2218      C2223   1.452       .  S
C2219      C2220   1.419       .  A
C2219      C2226   1.453       .  S
C2221      C2222   1.425       .  A
C2221      C2224   1.452       .  S
C2222      C2225   1.452       .  S
C2223      N2230   1.158       .  T
C2224      N2229   1.158       .  T
C2225      N2227   1.158       .  T
C2226      N2228   1.158       .  T
C2231      C2232   1.423       .  A
C2232      C2233   1.425       .  A
C2232      C2237   1.451       .  S
C2233      C2240   1.451       .  S
C2234      C2235   1.424   1_455  A
C2235      C2236   1.424       .  A
C2235      C2238   1.452       .  S
C2236      C2239   1.453       .  S
C2237      N2244   1.157       .  T
C2238      N2243   1.158       .  T
C2239      N2241   1.158       .  T
C2240      N2242   1.158       .  T
C2246      C2247   1.404       .  A
C2246      C2251   1.453       .  S
C2247      C2254   1.454       .  S
C2249      C2250   1.411       .  A
C2249      C2252   1.451       .  S
C2250      C2253   1.452       .  S
C2251      N2258   1.157       .  T
C2252      N2257   1.157       .  T
C2253      N2255   1.157       .  T
C2254      N2256   1.157       .  T
C2260      C2261   1.409       .  A
C2260      C2265   1.451       .  S
C2261      C2268   1.454       .  S
C2263      C2264   1.407       .  A
C2263      C2266   1.453       .  S
C2264      C2267   1.452       .  S
C2265      N2272   1.158   1_655  T
C2266      N2271   1.157       .  T
C2267      N2269   1.158       .  T
C2268      N2270   1.157       .  T
C2273      C3050   1.415       .  A
C2274      C3049   1.411       .  A
C2274      C2275   1.401       .  A
C2274      C2279   1.455       .  S
C2275      C3052   1.417       .  A
C2275      C2282   1.454   1_556  S
C2276      C2767   1.475       .  S
C2276      C3051   1.411       .  A
C2277      C2278   1.404       .  A
C2277      C2280   1.455       .  S
C2278      C2281   1.454       .  S
C2279      N2286   1.157   1_556  T
C2280      N2285   1.157       .  T
C2281      N2283   1.158       .  T
C2282      N2284   1.158       .  T
C2287      C3068   1.409       .  A
C2288      C2289   1.405       .  A
C2288      C2293   1.452       .  S
C2289      C2296   1.452       .  S
C2290      C3067   1.421       .  A
C2291      C3066   1.417   1_545  A
C2291      C2292   1.402       .  A
C2291      C2294   1.455       .  S
C2292      C3063   1.411   1_545  A
C2292      C2295   1.454       .  S
C2293      N2300   1.157       .  T
C2294      N2299   1.158       .  T
C2295      N2297   1.157       .  T
C2296      N2298   1.157       .  T
C2301      C3078   1.409       .  A
C2302      C3077   1.407   1_545  A
C2302      C2303   1.403       .  A
C2302      C2307   1.451       .  S
C2303      C3080   1.408   1_545  A
C2303      C2310   1.451       .  S
C2304      C3079   1.408       .  A
C2305      C2306   1.409       .  A
C2305      C2308   1.451       .  S
C2306      C2309   1.451       .  S
C2307      N2314   1.157       .  T
C2308      N2313   1.157       .  T
C2309      N2311   1.157       .  T
C2310      N2312   1.157       .  T
C2315      C2316   1.409       .  A
C2316      C2317   1.408       .  A
C2316      C2321   1.450       .  S
C2317      C2318   1.411       .  A
C2317      C2324   1.451       .  S
C2319      C2320   1.405       .  A
C2319      C2322   1.450       .  S
C2320      C2323   1.452       .  S
C2321      N2328   1.157       .  T
C2322      N2327   1.157       .  T
C2323      N2325   1.157       .  T
C2324      N2326   1.157       .  T
O2329     Ni2335   1.907       .  S
O2329      C2738   1.263       .  A
O2330     Ni2353   1.913       .  S
O2331      H2354   0.966       .  S
O2331     Ni2735   1.916       .  S
C2332      O2349   1.272       .  A
C2332      C2703   1.475       .  S
O2333     Ni2352   1.913   1_556  S
O2333      C2727   1.265       .  A
O2334     Ni2352   1.900       .  S
O2334      C2336   1.265       .  A
Ni2335     O2338   1.924       .  S
Ni2335     O2340   1.894       .  S
C2336      C2650   1.471       .  S
O2337     Ni2353   1.899   1_455  S
O2337      C2343   1.276       .  A
C2339      O2721   1.264       .  A
C2339      C2661   1.453       .  S
O2340      C2342   1.265       .  A
O2341     Ni2352   1.934       .  S
C2342      C2633   1.480       .  S
C2343      C2692   1.461       .  S
H2344      O2345   0.966       .  S
O2345     Ni2741   1.916   1_554  S
O2346     Ni2347   1.911       .  S
Ni2347     O2351   1.882       .  S
Ni2347     O2349   1.893       .  S
Ni2347     O2719   1.922   1_554  S
O2348     Ni2353   1.913       .  S
C2350      O2717   1.263       .  A
C2350      C2675   1.466       .  S
Ni2353     O2733   1.916   1_565  S
O2355      C2365   1.275       .  A
O2356     Ni2363   1.911       .  S
O2356      C2366   1.280       .  A
O2357     Ni2363   1.937       .  S
O2357      C2367   1.286       .  A
O2358      C2368   1.287       .  A
O2359     Ni2364   1.932       .  S
O2362     Ni2364   1.910       .  S
C2366      C2706   1.472       .  S
C2367      C2619   1.528       .  S
C2368      C2608   1.533       .  S
O2369     Ni2377   1.894       .  S
O2370     Ni2377   1.892       .  S
O2371     Ni2765   1.975       .  S
O2372     Ni2377   1.988       .  S
O2373     Ni2766   1.985       .  S
O2373      C2382   1.294   1_565  A
O2374     Ni2378   1.985   1_554  S
O2374      C2381   1.294   1_565  A
O2375     Ni2378   1.914       .  S
O2375      C2380   1.280       .  A
O2376     Ni2378   1.913       .  S
O2376      C2767   1.280   1_565  A
Ni2377     O2759   1.981       .  S
Ni2378     O2761   1.985       .  S
C2379      O2764   1.281   1_545  A
C2380      C2678   1.484   1_556  S
C2382      C2580   1.566       .  S
O2383     Ni2391   1.978       .  S
O2383      C2781   1.293       .  A
O2384      C2782   1.294       .  A
O2385     Ni2391   1.907       .  S
O2386     Ni2391   1.912       .  S
O2387     Ni2392   1.903       .  S
O2387      C2396   1.277   1_655  A
O2388     Ni2392   1.904       .  S
O2388      C2395   1.278   1_554  A
O2389     Ni2392   1.986       .  S
O2389      C2394   1.295       .  A
O2390      C2393   1.297       .  A
C2393      O2771   1.291   1_554  A
C2393      C2563   1.564       .  S
C2394      O2772   1.294   1_554  A
C2394      C2940   1.583       .  S
C2396      C2647   1.494   1_455  S
O2397     Ni2405   1.895       .  S
O2397      C2407   1.278       .  A
O2398      C2408   1.275       .  A
O2399     Ni2405   1.938       .  S
O2400     Ni2405   1.932       .  S
O2401     Ni2406   1.941       .  S
O2401      C2410   1.286       .  A
O2402     Ni2406   1.935       .  S
O2402      C2409   1.285       .  A
O2403     Ni2406   1.905       .  S
O2403      C2408   1.279       .  A
O2404      C2407   1.276       .  A
C2407      C2524   1.458       .  S
C2408      C2535   1.460       .  S
C2409      C2605   1.523       .  S
C2410      C2622   1.531       .  S
O2411     Ni2417   1.912       .  S
O2411      C2432   1.269       .  A
O2412     Ni2435   1.880       .  S
O2412      C2421   1.264       .  A
O2413      H2436   0.964       .  S
O2413     Ni2417   1.911       .  S
O2413     Ni2435   1.901       .  S
O2413     Ni2429   1.911       .  S
C2414      O2431   1.267       .  A
C2414      O2423   1.266       .  A
C2414      C2507   1.473       .  S
O2415     Ni2434   1.918       .  S
O2415      C2421   1.270       .  A
O2416     Ni2434   1.916       .  S
O2416      C2418   1.274       .  A
Ni2417     O2420   1.921       .  S
Ni2417     O2422   1.903       .  S
C2418      O2428   1.280       .  A
C2418      C2479   1.501       .  S
O2419     Ni2435   1.889       .  S
O2419      C2425   1.259       .  A
O2420      C2425   1.268       .  A
C2421      C2521   1.483       .  S
O2422      C2424   1.271       .  A
O2423     Ni2434   1.919       .  S
C2424      O2430   1.284       .  A
C2424      C2468   1.499       .  S
C2425      C2496   1.467       .  S
H2426      O2427   0.963       .  S
O2427     Ni2435   1.891       .  S
O2427     Ni2429   1.894       .  S
O2427     Ni2434   1.912       .  S
O2428     Ni2429   1.954       .  S
Ni2429     O2433   1.883       .  S
Ni2429     O2431   1.904       .  S
O2430     Ni2435   1.966       .  S
C2432      O2433   1.265       .  A
C2432      C2538   1.474       .  S
O2437     Ni2445   1.892   1_554  S
O2437      C2447   1.276       .  A
O2438     Ni2833   1.905       .  S
O2438      C2448   1.278       .  A
O2439     Ni2445   1.982   1_554  S
O2439      C2837   1.293       .  A
O2440     Ni2445   1.985       .  S
O2440      C2450   1.295       .  A
O2441     Ni2446   1.983       .  S
O2441      C2838   1.293       .  A
O2442     Ni2446   1.985       .  S
O2442      C2449   1.295       .  A
O2443     Ni2446   1.909       .  S
O2443      C2448   1.279       .  A
O2444     Ni2834   1.903       .  S
O2444      C2447   1.278       .  A
Ni2445     O2826   1.900       .  S
Ni2445    Ni2834   2.369   1_556  S
Ni2446     O2832   1.908       .  S
Ni2446    Ni2833   2.368       .  S
C2447      C2493   1.492       .  S
C2448      C2510   1.504       .  S
C2449      O2827   1.294       .  A
C2449      C2549   1.568       .  S
C2450      O2829   1.293       .  A
C2450      C2566   1.569       .  S
O2451     Ni2459   1.913   1_565  S
O2451      C2461   1.279       .  A
O2452      C2462   1.282       .  A
O2453      C2463   1.293       .  A
O2454     Ni2459   1.996       .  S
O2454      C2464   1.297       .  A
O2455      C2464   1.294   1_565  A
O2456     Ni2460   1.989       .  S
O2456      C2463   1.296       .  A
O2457     Ni2460   1.925       .  S
O2457      C2462   1.281       .  A
O2458      C2461   1.285       .  A
C2461      C2482   1.501       .  S
C2462      C2465   1.495       .  S
C2463      C2594   1.583       .  S
C2464      C2577   1.573       .  S
C2465      C2466   1.413       .  A
C2465      C2470   1.413       .  A
C2466      C2467   1.415       .  A
C2466      C2471   1.452       .  S
C2467      C2468   1.421       .  A
C2467      C2474   1.452       .  S
C2468      C2469   1.415       .  A
C2469      C2470   1.414       .  A
C2469      C2472   1.450       .  S
C2470      C2473   1.449       .  S
C2471      N2478   1.157       .  T
C2472      N2477   1.157       .  T
C2473      N2475   1.156       .  T
C2474      N2476   1.158       .  T
C2479      C2480   1.418       .  A
C2479      C2484   1.418       .  A
C2480      C2481   1.413       .  A
C2480      C2485   1.452       .  S
C2481      C2482   1.418       .  A
C2481      C2488   1.450       .  S
C2482      C2483   1.415       .  A
C2483      C2484   1.415       .  A
C2483      C2486   1.452       .  S
C2484      C2487   1.451       .  S
C2485      N2492   1.157       .  T
C2486      N2491   1.158       .  T
C2487      N2489   1.158       .  T
C2488      N2490   1.157       .  T
C2493      C2494   1.425       .  A
C2493      C2498   1.424       .  A
C2494      C2495   1.402       .  A
C2494      C2499   1.452       .  S
C2495      C2496   1.402       .  A
C2495      C2502   1.453       .  S
C2496      C2497   1.407       .  A
C2497      C2498   1.406       .  A
C2497      C2500   1.452       .  S
C2498      C2501   1.453       .  S
C2499      N2506   1.158       .  T
C2500      N2505   1.158       .  T
C2501      N2503   1.158       .  T
C2502      N2504   1.157       .  T
C2507      C2508   1.408       .  A
C2507      C2512   1.407       .  A
C2508      C2509   1.407       .  A
C2508      C2513   1.455       .  S
C2509      C2510   1.427       .  A
C2509      C2516   1.453       .  S
C2510      C2511   1.426       .  A
C2511      C2512   1.409       .  A
C2511      C2514   1.452       .  S
C2512      C2515   1.454       .  S
C2513      N2520   1.157       .  T
C2514      N2519   1.158       .  T
C2515      N2517   1.157       .  T
C2516      N2518   1.158       .  T
C2521      C2522   1.421       .  A
C2521      C2526   1.420       .  A
C2522      C2523   1.402       .  A
C2522      C2527   1.452       .  S
C2523      C2524   1.402       .  A
C2523      C2530   1.453       .  S
C2524      C2525   1.408       .  A
C2525      C2526   1.405       .  A
C2525      C2528   1.454       .  S
C2526      C2529   1.452       .  S
C2527      N2534   1.157       .  T
C2528      N2533   1.157       .  T
C2529      N2531   1.158       .  T
C2530      N2532   1.157       .  T
C2535      C2536   1.404       .  A
C2535      C2540   1.408       .  A
C2536      C2537   1.402       .  A
C2536      C2541   1.450       .  S
C2537      C2538   1.415       .  A
C2537      C2544   1.452       .  S
C2538      C2539   1.418       .  A
C2539      C2540   1.405       .  A
C2539      C2542   1.453       .  S
C2540      C2543   1.453       .  S
C2541      N2548   1.157       .  T
C2542      N2547   1.158       .  T
C2543      N2545   1.157       .  T
C2544      N2546   1.157       .  T
C2549      C2938   1.427       .  A
C2549      C2554   1.422       .  A
C2550      C2937   1.422       .  A
C2550      C2551   1.447       .  A
C2550      C2555   1.449       .  S
C2551      C2940   1.436       .  A
C2551      C2558   1.448       .  S
C2552      C2782   1.575       .  S
C2552      C2939   1.431       .  A
C2552      C2553   1.429       .  A
C2553      C2554   1.443       .  A
C2553      C2556   1.444       .  S
C2554      C2557   1.449       .  S
C2555      N2562   1.157       .  T
C2556      N2561   1.156       .  T
C2557      N2559   1.157       .  T
C2558      N2560   1.158       .  T
C2563      C2564   1.427   1_554  A
C2563      C2568   1.423       .  A
C2564      C2565   1.445       .  A
C2564      C2569   1.449       .  S
C2565      C2566   1.427       .  A
C2565      C2572   1.448       .  S
C2566      C2567   1.429   1_556  A
C2567      C2568   1.444       .  A
C2567      C2570   1.448       .  S
C2568      C2959   1.447       .  S
C2569      N2576   1.157       .  T
C2570      N2963   1.157       .  T
C2571      C2956   1.446       .  S
C2571      N2573   1.157       .  T
C2572      N2574   1.157       .  T
N2575      C2958   1.157       .  T
C2577      C2578   1.429   1_545  A
C2577      C2582   1.429       .  A
C2578      C2579   1.447       .  A
C2578      C2583   1.445       .  S
C2579      C2580   1.424   1_565  A
C2579      C2586   1.449       .  S
C2580      C2581   1.424       .  A
C2581      C2582   1.446       .  A
C2581      C2584   1.447       .  S
C2582      C2585   1.449       .  S
C2583      N2590   1.156       .  T
C2585      N2587   1.157       .  T
C2586      N2588   1.157       .  T
C2591      C2592   1.421       .  A
C2592      C2593   1.445       .  A
C2592      C2597   1.450       .  S
C2593      C2594   1.437       .  A
C2593      C2600   1.449       .  S
C2595      C2596   1.446       .  A
C2595      C2598   1.449       .  S
C2596      C2599   1.450       .  S
C2597      N2604   1.157       .  T
C2598      N2603   1.158       .  T
C2599      N2601   1.157       .  T
C2600      N2602   1.158       .  T
C2605      C2610   1.421   1_655  A
C2606      C2607   1.423       .  A
C2606      C2611   1.452       .  S
C2607      C2608   1.427       .  A
C2607      C2614   1.452       .  S
C2609      C2610   1.424       .  A
C2609      C2612   1.451       .  S
C2610      C2613   1.453       .  S
C2611      N2618   1.158       .  T
C2612      N2617   1.158       .  T
C2613      N2615   1.158       .  T
C2614      N2616   1.158       .  T
C2619      C2620   1.422       .  A
C2620      C2621   1.422       .  A
C2620      C2625   1.452       .  S
C2621      C2628   1.452       .  S
C2622      C2623   1.425       .  A
C2623      C2624   1.425       .  A
C2623      C2626   1.452       .  S
C2624      C2627   1.452       .  S
C2625      N2632   1.157       .  T
C2626      N2631   1.158       .  T
C2627      N2629   1.158       .  T
C2628      N2630   1.158       .  T
C2633      C3022   1.414       .  A
C2634      C3021   1.413   1_554  A
C2634      C2635   1.406       .  A
C2634      C2639   1.454       .  S
C2635      C3024   1.418   1_554  A
C2635      C2642   1.454       .  S
C2636      C3023   1.418       .  A
C2637      C2638   1.407       .  A
C2637      C2640   1.447       .  S
C2638      C2641   1.453       .  S
C2639      N2646   1.157       .  T
C2640      N2645   1.156       .  T
C2641      N2643   1.157       .  T
C2642      N2644   1.158       .  T
C2647      C3036   1.422   1_554  A
C2648      C3035   1.414       .  A
C2648      C2649   1.405       .  A
C2648      C2653   1.453       .  S
C2649      C3038   1.413       .  A
C2649      C2656   1.452       .  S
C2650      C3037   1.407   1_554  A
C2651      C2652   1.410       .  A
C2651      C2654   1.453       .  S
C2652      C2655   1.452       .  S
C2653      N2660   1.157       .  T
C2654      N2659   1.157       .  T
C2655      N2657   1.157       .  T
C2656      N2658   1.157       .  T
C2661      C3054   1.401       .  A
C2662      C2663   1.410       .  A
C2662      C2667   1.451   1_545  S
C2663      C2670   1.450   1_545  S
C2664      C3053   1.419       .  A
C2665      C3052   1.419       .  A
C2665      C2666   1.402       .  A
C2665      C2668   1.453       .  S
C2666      C3049   1.403       .  A
C2666      C2669   1.452       .  S
C2667      N2674   1.158       .  T
C2668      N2673   1.157       .  T
C2669      N2671   1.157       .  T
C2670      N2672   1.157       .  T
C2675      C3064   1.407       .  A
C2676      C3063   1.409       .  A
C2676      C2677   1.409       .  A
C2676      C2681   1.451       .  S
C2677      C3066   1.417       .  A
C2677      C2684   1.451       .  S
C2678      C3065   1.420       .  A
C2679      C2680   1.400       .  A
C2679      C2682   1.453       .  S
C2680      C2683   1.456       .  S
C2681      N2688   1.157       .  T
C2682      N2687   1.158   1_554  T
C2683      N2685   1.158   1_554  T
C2684      N2686   1.158       .  T
C2690      C2691   1.405       .  A
C2690      C2695   1.450       .  S
C2691      C2698   1.451       .  S
C2693      C2694   1.405       .  A
C2693      C2696   1.451       .  S
C2694      C2697   1.451       .  S
C2695      N2702   1.157       .  T
C2696      N2701   1.157       .  T
C2697      N2699   1.157       .  T
C2698      N2700   1.157       .  T
C2703      C2704   1.412       .  A
C2704      C2705   1.412       .  A
C2704      C2709   1.450       .  S
C2705      C2706   1.412       .  A
C2705      C2712   1.451       .  S
C2707      C2708   1.402       .  A
C2707      C2710   1.452   1_655  S
C2708      C2711   1.451       .  S
C2709      N2716   1.157       .  T
C2710      N2715   1.157       .  T
C2711      N2713   1.157       .  T
C2712      N2714   1.157       .  T
O2717     Ni2723   1.907   1_554  S
O2718     Ni2741   1.908       .  S
O2719      H2742   0.966       .  S
C2720      O2737   1.271       .  A
C2720      C3091   1.469       .  S
O2721     Ni2740   1.911       .  S
O2722     Ni2740   1.898       .  S
O2722      C2724   1.265       .  A
Ni2723     O2726   1.922       .  S
Ni2723     O2728   1.892       .  S
C2724      C3038   1.478       .  S
O2725     Ni2741   1.900   1_455  S
O2725      C2731   1.276       .  A
C2727      C3049   1.458       .  S
O2728      C2730   1.265       .  A
O2729     Ni2740   1.929       .  S
C2730      C3021   1.479       .  S
C2731      C3080   1.461       .  S
H2732      O2733   0.966   1_565  S
O2734     Ni2735   1.913       .  S
Ni2735     O2739   1.882       .  S
Ni2735     O2737   1.897       .  S
O2736     Ni2741   1.924       .  S
C2738      C3063   1.469       .  S
O2743      C2753   1.274       .  A
O2744     Ni2751   1.914       .  S
O2744      C2754   1.281       .  A
O2745     Ni2751   1.938       .  S
O2745      C2755   1.286       .  A
O2746      C2756   1.287       .  A
O2747     Ni2752   1.931   1_565  S
O2750     Ni2752   1.910   1_565  S
C2754      C3094   1.469       .  S
C2755      C3007   1.529       .  S
C2756      C2996   1.532       .  S
O2757     Ni2765   1.894   1_556  S
O2758     Ni2765   1.892       .  S
O2760     Ni2765   1.984   1_556  S
O2761      C2770   1.294   1_565  A
O2762     Ni2766   1.987       .  S
O2762      C2769   1.295   1_565  A
O2763     Ni2766   1.914       .  S
O2763      C2768   1.280       .  A
O2764     Ni2766   1.918       .  S
C2768      C3066   1.481       .  S
C2770      C2968   1.564       .  S
O2771     Ni2779   1.975       .  S
O2773     Ni2779   1.910       .  S
O2774     Ni2779   1.915       .  S
O2775     Ni2780   1.908       .  S
O2775      C2784   1.278       .  A
O2776     Ni2780   1.911       .  S
O2776      C2783   1.280       .  A
O2777     Ni2780   1.994       .  S
O2777      C2782   1.297       .  A
O2778      C2781   1.297       .  A
C2781      C2951   1.572       .  S
C2784      C3035   1.480       .  S
O2785     Ni2793   1.898       .  S
O2785      C2795   1.278       .  A
O2786      C2796   1.276       .  A
O2787     Ni2793   1.935       .  S
O2788     Ni2793   1.931       .  S
O2789     Ni2794   1.941       .  S
O2789      C2798   1.287       .  A
O2790     Ni2794   1.936       .  S
O2790      C2797   1.285       .  A
O2791     Ni2794   1.909       .  S
O2791      C2796   1.280       .  A
O2792      C2795   1.276       .  A
C2795      C2912   1.460       .  S
C2796      C2923   1.465       .  S
C2797      C2993   1.521       .  S
C2798      C3010   1.531       .  S
O2799     Ni2805   1.924       .  S
O2799      C2820   1.271       .  A
O2800     Ni2823   1.884       .  S
O2800      C2809   1.264       .  A
O2801      H2824   0.964       .  S
O2801     Ni2805   1.913       .  S
O2801     Ni2823   1.906       .  S
O2801     Ni2817   1.906       .  S
C2802      O2819   1.264       .  A
C2802      O2811   1.267       .  A
C2802      C2895   1.466       .  S
O2803     Ni2822   1.923       .  S
O2803      C2809   1.271       .  A
O2804     Ni2822   1.917       .  S
O2804      C2806   1.274       .  A
Ni2805     O2808   1.927       .  S
Ni2805     O2810   1.907       .  S
C2806      O2816   1.279       .  A
C2806      C2867   1.501       .  S
O2807     Ni2823   1.884       .  S
O2807      C2813   1.259       .  A
O2808      C2813   1.270       .  A
C2809      C2909   1.482       .  S
O2810      C2812   1.272       .  A
O2811     Ni2822   1.921       .  S
C2812      O2818   1.282       .  A
C2812      C2856   1.501       .  S
C2813      C2884   1.467       .  S
H2814      O2815   0.964       .  S
O2815     Ni2823   1.888       .  S
O2815     Ni2817   1.898       .  S
O2815     Ni2822   1.915       .  S
O2816     Ni2817   1.953       .  S
Ni2817     O2821   1.883       .  S
Ni2817     O2819   1.895       .  S
O2818     Ni2823   1.962       .  S
C2820      O2821   1.263       .  A
C2820      C2926   1.480       .  S
O2825     Ni2833   1.891       .  S
O2825      C2835   1.275       .  A
O2826      C2836   1.277       .  A
O2827     Ni2833   1.985       .  S
O2828     Ni2833   1.981       .  S
O2828      C2838   1.293       .  A
O2829     Ni2834   1.980   1_556  S
O2830     Ni2834   1.984       .  S
O2830      C2837   1.293       .  A
O2831     Ni2834   1.908   1_556  S
O2831      C2836   1.280       .  A
O2832      C2835   1.280       .  A
C2835      C2881   1.492       .  S
C2836      C2898   1.494       .  S
C2837      C2937   1.562       .  S
C2838      C2954   1.562       .  S
O2839     Ni2847   1.917   1_565  S
O2839      C2849   1.279       .  A
O2840      C2850   1.281       .  A
O2841      C2851   1.295       .  A
O2842     Ni2847   1.994       .  S
O2842      C2852   1.297       .  A
O2843      C2852   1.294   1_565  A
O2844     Ni2848   1.988       .  S
O2844      C2851   1.296       .  A
O2845     Ni2848   1.925       .  S
O2845      C2850   1.281       .  A
O2846      C2849   1.284       .  A
C2849      C2870   1.499       .  S
C2850      C2853   1.494       .  S
C2851      C2982   1.587       .  S
C2852      C2965   1.580       .  S
C2853      C2854   1.413       .  A
C2853      C2858   1.413       .  A
C2854      C2855   1.415       .  A
C2854      C2859   1.452       .  S
C2855      C2856   1.421       .  A
C2855      C2862   1.452       .  S
C2856      C2857   1.417       .  A
C2857      C2858   1.415       .  A
C2857      C2860   1.450       .  S
C2858      C2861   1.452       .  S
C2859      N2866   1.157       .  T
C2860      N2865   1.157       .  T
C2861      N2863   1.157       .  T
C2862      N2864   1.158       .  T
C2867      C2868   1.417       .  A
C2867      C2872   1.418       .  A
C2868      C2869   1.414       .  A
C2868      C2873   1.452       .  S
C2869      C2870   1.416       .  A
C2869      C2876   1.449       .  S
C2870      C2871   1.414       .  A
C2871      C2872   1.416       .  A
C2871      C2874   1.452       .  S
C2872      C2875   1.450       .  S
C2873      N2880   1.157       .  T
C2874      N2879   1.157       .  T
C2875      N2877   1.157       .  T
C2876      N2878   1.156       .  T
C2881      C2882   1.425       .  A
C2881      C2886   1.423       .  A
C2882      C2883   1.402       .  A
C2882      C2887   1.452       .  S
C2883      C2884   1.402       .  A
C2883      C2890   1.453       .  S
C2884      C2885   1.407       .  A
C2885      C2886   1.406       .  A
C2885      C2888   1.452       .  S
C2886      C2889   1.452       .  S
C2887      N2894   1.158       .  T
C2888      N2893   1.158       .  T
C2889      N2891   1.158       .  T
C2890      N2892   1.157       .  T
C2895      C2896   1.410       .  A
C2895      C2900   1.405       .  A
C2896      C2897   1.406       .  A
C2896      C2901   1.454       .  S
C2897      C2898   1.423       .  A
C2897      C2904   1.453       .  S
C2898      C2899   1.421       .  A
C2899      C2900   1.405       .  A
C2899      C2902   1.451       .  S
C2900      C2903   1.452       .  S
C2901      N2908   1.157       .  T
C2902      N2907   1.157       .  T
C2903      N2905   1.157       .  T
C2904      N2906   1.158       .  T
C2909      C2910   1.420       .  A
C2909      C2914   1.418       .  A
C2910      C2911   1.403       .  A
C2910      C2915   1.450       .  S
C2911      C2912   1.402       .  A
C2911      C2918   1.453       .  S
C2912      C2913   1.408       .  A
C2913      C2914   1.406       .  A
C2913      C2916   1.453       .  S
C2914      C2917   1.452       .  S
C2915      N2922   1.157       .  T
C2916      N2921   1.157       .  T
C2917      N2919   1.158       .  T
C2918      N2920   1.157       .  T
C2923      C2924   1.404       .  A
C2923      C2928   1.409       .  A
C2924      C2925   1.404       .  A
C2924      C2929   1.451       .  S
C2925      C2926   1.417       .  A
C2925      C2932   1.451       .  S
C2926      C2927   1.417       .  A
C2927      C2928   1.407       .  A
C2927      C2930   1.452       .  S
C2928      C2931   1.453       .  S
C2929      N2936   1.157       .  T
C2930      N2935   1.158       .  T
C2931      N2933   1.157       .  T
C2932      N2934   1.157       .  T
C2937      C2942   1.421   1_554  A
C2938      C2939   1.450       .  A
C2938      C2943   1.448       .  S
C2939      C2946   1.448       .  S
C2940      C2941   1.436   1_554  A
C2941      C2942   1.445       .  A
C2941      C2944   1.448       .  S
C2942      C2945   1.450       .  S
C2943      N2950   1.158       .  T
C2944      N2949   1.157       .  T
C2945      N2947   1.157       .  T
C2946      N2948   1.158       .  T
C2951      C2952   1.433       .  A
C2951      C2956   1.428       .  A
C2952      C2953   1.446       .  A
C2952      C2957   1.449       .  S
C2953      C2954   1.423       .  A
C2953      C2960   1.449       .  S
C2954      C2955   1.424       .  A
C2955      C2956   1.443       .  A
C2955      C2958   1.448       .  S
C2957      N2964   1.158       .  T
C2959      N2961   1.157       .  T
C2960      N2962   1.157       .  T
C2965      C2966   1.434       .  A
C2965      C2970   1.433       .  A
C2966      C2967   1.447       .  A
C2966      C2971   1.446       .  S
C2967      C2968   1.422       .  A
C2967      C2974   1.449   1_545  S
C2968      C2969   1.422       .  A
C2969      C2970   1.446       .  A
C2969      C2972   1.447       .  S
C2970      C2973   1.449       .  S
C2971      N2978   1.157   1_545  T
C2973      N2975   1.157       .  T
C2974      N2976   1.157       .  T
C2979      C2980   1.421       .  A
C2980      C2981   1.446       .  A
C2980      C2985   1.450       .  S
C2981      C2982   1.437       .  A
C2981      C2988   1.448       .  S
C2983      C2984   1.448       .  A
C2983      C2986   1.448       .  S
C2984      C2987   1.449       .  S
C2985      N2992   1.157       .  T
C2986      N2991   1.158       .  T
C2987      N2989   1.157       .  T
C2988      N2990   1.158       .  T
C2993      C2998   1.420   1_655  A
C2994      C2995   1.423       .  A
C2994      C2999   1.452       .  S
C2995      C2996   1.428       .  A
C2995      C3002   1.452       .  S
C2997      C2998   1.423       .  A
C2997      C3000   1.451       .  S
C2998      C3001   1.453       .  S
C2999      N3006   1.158       .  T
C3000      N3005   1.158       .  T
C3001      N3003   1.158       .  T
C3002      N3004   1.158       .  T
C3007      C3008   1.423       .  A
C3008      C3009   1.423       .  A
C3008      C3013   1.452       .  S
C3009      C3016   1.452       .  S
C3010      C3011   1.424       .  A
C3011      C3012   1.424       .  A
C3011      C3014   1.452       .  S
C3012      C3015   1.452       .  S
C3013      N3020   1.158       .  T
C3014      N3019   1.158       .  T
C3015      N3017   1.158       .  T
C3016      N3018   1.158       .  T
C3022      C3023   1.407       .  A
C3022      C3027   1.454       .  S
C3023      C3030   1.454       .  S
C3025      C3026   1.410       .  A
C3025      C3028   1.451       .  S
C3026      C3029   1.450       .  S
C3027      N3034   1.158       .  T
C3028      N3033   1.157       .  T
C3029      N3031   1.157       .  T
C3030      N3032   1.158       .  T
C3036      C3037   1.407       .  A
C3036      C3041   1.451       .  S
C3037      C3044   1.454       .  S
C3039      C3040   1.409       .  A
C3039      C3042   1.453       .  S
C3040      C3043   1.448       .  S
C3041      N3048   1.157       .  T
C3042      N3047   1.158       .  T
C3043      N3045   1.156       .  T
C3044      N3046   1.157       .  T
C3050      C3051   1.408       .  A
C3050      C3055   1.450   1_545  S
C3051      C3058   1.451   1_545  S
C3053      C3054   1.402       .  A
C3053      C3056   1.452       .  S
C3054      C3057   1.452       .  S
C3055      N3062   1.157       .  T
C3056      N3061   1.157       .  T
C3057      N3059   1.157       .  T
C3058      N3060   1.157       .  T
C3064      C3065   1.408       .  A
C3064      C3069   1.452       .  S
C3065      C3072   1.452       .  S
C3067      C3068   1.401       .  A
C3067      C3070   1.453       .  S
C3068      C3071   1.456       .  S
C3069      N3076   1.157       .  T
C3070      N3075   1.158       .  T
C3071      N3073   1.157       .  T
C3072      N3074   1.158       .  T
C3078      C3079   1.405       .  A
C3078      C3083   1.450       .  S
C3079      C3086   1.451       .  S
C3081      C3082   1.405       .  A
C3081      C3084   1.450       .  S
C3082      C3085   1.451       .  S
C3083      N3090   1.157       .  T
C3084      N3089   1.157       .  T
C3085      N3087   1.157       .  T
C3086      N3088   1.157       .  T
C3091      C3092   1.411       .  A
C3092      C3093   1.410       .  A
C3092      C3097   1.451       .  S
C3093      C3094   1.411       .  A
C3093      C3100   1.451       .  S
C3095      C3096   1.401       .  A
C3095      C3098   1.452       .  S
C3096      C3099   1.453       .  S
C3097      N3104   1.157       .  T
C3098      N3103   1.157   1_655  T
C3099      N3101   1.157       .  T
C3100      N3102   1.158       .  T
