geometry optimzed in LAMMPS
_audit_creation_date              2020-11-30 
_audit_creation_method            'lammps2cif' 
_symmetry_space_group_name_H-M    'P1' 
_symmetry_Int_Tables_number       1 
_symmetry_cell_setting            triclinic 
loop_ 
_symmetry_equiv_pos_as_xyz 
  x,y,z 
_cell_length_a                    26.15125699 
_cell_length_b                    26.498557852226046 
_cell_length_c                    25.851222168490875 
_cell_angle_alpha                 89.97140984007298 
_cell_angle_beta                  89.61716746804412 
_cell_angle_gamma                 90.16870742094108 
loop_ 
_atom_site_label 
_atom_site_type_symbol 
_atom_site_fract_x 
_atom_site_fract_y 
_atom_site_fract_z 
_atom_site_charge 
C1          C  0.83319174  0.76020597  0.84116444     0.03200
C2          C  0.85624426  0.78492147  0.79923132    -0.13000
C3          C  0.83390342  0.82841899  0.77868889     0.00700
C4          C  0.78964421  0.84822498  0.80156641    -0.11500
C5          C  0.76653018  0.82347120  0.84356397     0.03200
C6          C  0.78878186  0.77985265  0.86367345    -0.10900
H7          H  0.88942825  0.76853254  0.78051031     0.08800
H8          H  0.77130543  0.88099135  0.78458734     0.06300
H9          H  0.76978121  0.75939798  0.89479859     0.06100
C10         C  0.83751947  0.57188086  0.26423453     0.03200
C11         C  0.79312038  0.55349319  0.28836500    -0.13000
C12         C  0.77128008  0.57990290  0.32983176     0.00700
C13         C  0.79420399  0.62417612  0.34761245    -0.11500
C14         C  0.83857899  0.64249825  0.32367296     0.03200
C15         C  0.86056592  0.61616838  0.28233107    -0.10900
H16         H  0.77424598  0.52006391  0.27334032     0.08800
H17         H  0.77653575  0.64531825  0.37882375     0.06300
H18         H  0.89420228  0.63133634  0.26274817     0.06100
Zn19       Zn  0.97275989  0.42204302  0.00657423     1.49700
Zn20       Zn  0.87347654  0.46742956  0.95896673     1.49400
Zn21       Zn  0.98100769  0.48230979  0.90031489     1.49100
Zn22       Zn  0.92781072  0.37409498  0.90507797     1.49500
O23         O  0.93874792  0.43669153  0.94215612    -1.84100
O24         O  0.94034591  0.45698845  0.06661838    -0.74700
O25         O  0.87026886  0.53615430  0.92805492    -0.74500
O26         O  0.04791999  0.49652654  0.93501406    -0.74000
O27         O  0.86474160  0.47843506  0.03560328    -0.74700
O28         O  0.04361255  0.44801658  0.00520662    -0.74300
O29         O  0.94511823  0.54780213  0.88835938    -0.74900
O30         O  0.96373843  0.37552182  0.83653311    -0.74300
O31         O  0.81489935  0.42801533  0.92930868    -0.75100
O32         O  0.99845618  0.45214291  0.83136494    -0.74400
O33         O  0.85336815  0.36230377  0.89304619    -0.74900
O34         O  0.95559162  0.31499773  0.94375330    -0.74800
O35         O  0.97746843  0.34812378  0.01943646    -0.74600
C36         C  0.89663891  0.47687044  0.07256277     0.77200
C37         C  0.90096674  0.56324801  0.90166870     0.77700
C38         C  0.06744028  0.47862283  0.97598538     0.76600
C39         C  0.99001291  0.40864280  0.81255811     0.77000
C40         C  0.81306379  0.38704627  0.90371996     0.78100
C41         C  0.97310403  0.31052711  0.98924493     0.77200
C42         C  0.55401902  0.32001554  0.76222761     0.03200
C43         C  0.59871195  0.33795208  0.78518767    -0.13000
C44         C  0.61973698  0.31318796  0.82769062     0.00700
C45         C  0.59523382  0.27043078  0.84814699    -0.11500
C46         C  0.54981196  0.25258383  0.82603768     0.03200
C47         C  0.52888969  0.27778861  0.78338824    -0.10900
H48         H  0.61860847  0.37015541  0.76842539     0.08800
H49         H  0.61241697  0.25005342  0.88003479     0.06300
H50         H  0.49484326  0.26307153  0.76513101     0.06100
Zn51       Zn  0.50435359  0.96847714  0.96110779     1.49700
Zn52       Zn  0.39622118  0.97808755  0.90697156     1.49400
Zn53       Zn  0.45351690  0.87219527  0.91400921     1.49100
Zn54       Zn  0.40584801  0.92011573  0.01538176     1.49500
O55         O  0.43961992  0.93500379  0.94955934    -1.84100
O56         O  0.50652432  0.03609778  0.92630070    -0.74700
O57         O  0.37796624  0.94340166  0.84107371    -0.74500
O58         O  0.52779751  0.85869230  0.90482628    -0.74000
O59         O  0.43073658  0.04373739  0.88862765    -0.74700
O60         O  0.56345223  0.92926815  0.93322602    -0.74300
O61         O  0.42182359  0.87169486  0.84508016    -0.74900
O62         O  0.39367404  0.84514141  0.02435057    -0.74300
O63         O  0.33084745  0.99430933  0.94341935    -0.75100
O64         O  0.42301329  0.81403838  0.95014345    -0.74400
O65         O  0.33729774  0.95274920  0.01790149    -0.74900
O66         O  0.44490405  0.95020105  0.07495439    -0.74800
O67         O  0.51491307  0.97930816  0.03650416    -0.74600
C68         C  0.47495656  0.06083173  0.89907615     0.77200
C69         C  0.39170679  0.90139337  0.82192457     0.77700
C70         C  0.56698630  0.88591297  0.91262871     0.76600
C71         C  0.40092778  0.80830811  0.99349150     0.77000
C72         C  0.31299078  0.98134148  0.98727218     0.78100
C73         C  0.48778973  0.97294033  0.07696153     0.77200
C74         C  0.05648937  0.05816584  0.12618974     0.03200
C75         C  0.03249003  0.09922212  0.10266608    -0.13000
C76         C  0.05230195  0.11954945  0.05678589     0.00700
C77         C  0.09532924  0.09751934  0.03347221    -0.11500
C78         C  0.11954874  0.05670481  0.05733002     0.03200
C79         C  0.09981338  0.03680247  0.10337677    -0.10900
H80         H  0.00017226  0.11704083  0.12158074     0.08800
H81         H  0.11172152  0.11401212  0.99876385     0.06300
H82         H  0.11963694  0.00622209  0.12274481     0.06100
C83         C  0.26223598  0.82916417  0.55574158     0.03200
C84         C  0.28155955  0.85186020  0.60030739    -0.13000
C85         C  0.32355599  0.83076539  0.62531674     0.00700
C86         C  0.34675979  0.78738978  0.60535080    -0.11500
C87         C  0.32728691  0.76456050  0.56088263     0.03200
C88         C  0.28521276  0.78568036  0.53574759    -0.10900
H89         H  0.26243099  0.88437409  0.61689468     0.08800
H90         H  0.37845942  0.77015338  0.62571467     0.06300
H91         H  0.26915125  0.76721540  0.50227500     0.06100
Zn92       Zn  0.92703552  0.01850733  0.42333077     1.49700
Zn93       Zn  0.87924914  0.91913339  0.46876230     1.49400
Zn94       Zn  0.98647219  0.91500954  0.40805765     1.49100
Zn95       Zn  0.97915792  0.96464987  0.51902445     1.49500
O96         O  0.94309554  0.95417126  0.45472018    -1.84100
O97         O  0.85202878  0.02810736  0.41457287    -0.74700
O98         O  0.87905499  0.85303421  0.43279326    -0.74500
O99         O  0.00114269  0.95267837  0.34341386    -0.74000
O100        O  0.81838336  0.95554611  0.44095126    -0.74700
O101        O  0.95725266  0.02375516  0.35268992    -0.74300
O102        O  0.95204130  0.85097950  0.38798688    -0.74900
O103        O  0.04791332  0.93270311  0.51685448    -0.74300
O104        O  0.86979543  0.90612933  0.54437115    -0.75100
O105        O  0.05364464  0.89691695  0.43930050    -0.74400
O106        O  0.94270526  0.93245444  0.57854070    -0.74900
O107        O  0.98978411  0.03809493  0.53260481    -0.74800
O108        O  0.95656766  0.07515033  0.46344235    -0.74600
C109        C  0.81388416  0.99876485  0.42027722     0.77200
C110        C  0.90947400  0.83162656  0.40129358     0.77700
C111        C  0.98632444  0.99509679  0.32647653     0.76600
C112        C  0.07202856  0.90675010  0.48347326     0.77000
C113        C  0.89933545  0.91112568  0.58292388     0.78100
C114        C  0.98071660  0.07730262  0.50583002     0.77200
C115        C  0.55882036  0.06156115  0.26785112     0.03200
C116        C  0.60043378  0.04018456  0.29350024    -0.14600
C117        C  0.62298904  0.06549548  0.33507033     0.00700
C118        C  0.60332492  0.11189949  0.35152889    -0.11500
C119        C  0.56148823  0.13321368  0.32614261     0.03200
C120        C  0.53894550  0.10778927  0.28470438    -0.10900
H121        H  0.61694541  0.00518077  0.27942181     0.08800
H122        H  0.62170127  0.13226098  0.38268933     0.06300
H123        H  0.50732602  0.12502620  0.26410719     0.06100
C124        C  0.13404303  0.33308653  0.55022045     0.03200
C125        C  0.10964204  0.28931823  0.53253679    -0.13000
C126        C  0.06694956  0.27015289  0.55921841     0.00700
C127        C  0.04790581  0.29603135  0.60232268    -0.11500
C128        C  0.07142092  0.34046328  0.61913006     0.03200
C129        C  0.11454269  0.35902920  0.59313230    -0.10900
H130        H  0.12536459  0.26889284  0.49989896     0.08800
H131        H  0.01597954  0.28043349  0.62420896     0.06300
H132        H  0.13434814  0.39210097  0.60777964     0.06100
C133        C  0.32627039  0.61107173  0.04748412     0.03200
C134        C  0.34826768  0.59055461  0.09187408    -0.13000
C135        C  0.32820406  0.54669003  0.11407817     0.00700
C136        C  0.28590799  0.52284043  0.09170894    -0.11500
C137        C  0.26379369  0.54326538  0.04710731     0.03200
C138        C  0.28474809  0.58667895  0.02441203    -0.10900
H139        H  0.37940080  0.61019484  0.11074200     0.08800
H140        H  0.26854357  0.49049703  0.11049796     0.06300
H141        H  0.26656021  0.60340701  0.99073753     0.06100
Zn142      Zn  0.41879799  0.46317586  0.50655472     1.49700
Zn143      Zn  0.51986080  0.42231142  0.45351745     1.49400
Zn144      Zn  0.41279509  0.40939204  0.39595332     1.49100
Zn145      Zn  0.46247306  0.51781035  0.40823557     1.49500
O146        O  0.45347726  0.45270384  0.44090577    -1.84100
O147        O  0.45652665  0.43231195  0.56498918    -0.74700
O148        O  0.52575711  0.35599653  0.41720725    -0.74500
O149        O  0.34634030  0.39061166  0.42974843    -0.74000
O150        O  0.52942285  0.40703801  0.52894542    -0.74700
O151        O  0.35105624  0.42950127  0.50589799    -0.74300
O152        O  0.45024316  0.34541705  0.37950276    -0.74900
O153        O  0.43243460  0.51944925  0.33757979    -0.74300
O154        O  0.57667673  0.46652938  0.42759584    -0.75100
O155        O  0.39597593  0.44402227  0.32930724    -0.74400
O156        O  0.53637687  0.53579535  0.40253353    -0.74900
O157        O  0.42731986  0.57198806  0.44703527    -0.74800
O158        O  0.40643498  0.53613121  0.52163328    -0.74600
C159        C  0.49992933  0.41126233  0.56804308     0.77200
C160        C  0.49488662  0.32991424  0.39037945     0.77700
C161        C  0.32759980  0.40182190  0.47371497     0.76600
C162        C  0.40630285  0.48779825  0.31196113     0.77000
C163        C  0.57733249  0.51094630  0.40892477     0.78100
C164        C  0.40871953  0.57460410  0.49234195     0.77200
C165        C  0.38351276  0.49128088  0.16790941    -0.01800
C166        C  0.34741531  0.53039204  0.16464646     0.07900
C167        C  0.33179432  0.55651589  0.20946038    -0.01900
C168        C  0.35157183  0.54286380  0.25776602    -0.01900
C169        C  0.38659137  0.50269832  0.26127447     0.08000
C170        C  0.40273277  0.47702539  0.21638359    -0.02100
Br171      Br  0.45320982  0.42426513  0.22116837    -0.00700
Br172      Br  0.40842099  0.45928688  0.10571648    -0.00700
Br173      Br  0.32980436  0.57863233  0.31916207    -0.00700
Br174      Br  0.28374949  0.61153556  0.20445296    -0.00700
C175        C  0.23275367  0.39995636  0.46758077    -0.01800
C176        C  0.27808513  0.38109479  0.48922220     0.07900
C177        C  0.27624834  0.34518236  0.52922578    -0.01900
C178        C  0.22888420  0.32890517  0.54860648    -0.01900
C179        C  0.18338010  0.34844367  0.52779092     0.08000
C180        C  0.18521381  0.38379523  0.48718642    -0.02100
Br181      Br  0.12266796  0.41149688  0.46033205    -0.00700
Br182      Br  0.23603570  0.44966725  0.41310905    -0.00700
Br183      Br  0.22669523  0.28159309  0.60523193    -0.00700
Br184      Br  0.33890249  0.31854259  0.55754444    -0.00700
C185        C  0.49984401  0.18858259  0.37275210    -0.01800
C186        C  0.54339513  0.18369294  0.34097001     0.07900
C187        C  0.57028817  0.22687611  0.32406006    -0.01900
C188        C  0.55413841  0.27501478  0.33984565    -0.01900
C189        C  0.51101342  0.27986698  0.37241892     0.08000
C190        C  0.48393749  0.23663468  0.38897348    -0.02100
Br191      Br  0.42715588  0.24291695  0.43666287    -0.00700
Br192      Br  0.46262466  0.12921836  0.39460349    -0.00700
Br193      Br  0.59032401  0.33432054  0.31588663    -0.00700
Br194      Br  0.62861253  0.22000520  0.27846958    -0.00700
C195        C  0.97104187  0.16992725  0.52065176    -0.01800
C196        C  0.00154775  0.12615882  0.52238713     0.07900
C197        C  0.05360457  0.12976214  0.53591133    -0.01900
C198        C  0.07450512  0.17666192  0.54933707    -0.01900
C199        C  0.04472446  0.22079025  0.54530749     0.08000
C200        C  0.99304553  0.21735384  0.53043462    -0.02100
Br201      Br  0.95281547  0.27769782  0.52137029    -0.00700
Br202      Br  0.89865977  0.16497763  0.50693876    -0.00700
Br203      Br  0.14333607  0.17929614  0.57554550    -0.00700
Br204      Br  0.09796242  0.07141206  0.53245144    -0.00700
C205        C  0.76267247  0.03372109  0.34810565    -0.01800
C206        C  0.76424253  0.01426358  0.39896615     0.07900
C207        C  0.71851242  0.00897777  0.42789155    -0.01900
C208        C  0.67177017  0.02424012  0.40628478    -0.01900
C209        C  0.67108767  0.04670467  0.35694256     0.08000
C210        C  0.71659014  0.05178120  0.32806437    -0.02100
Br211      Br  0.71617111  0.08502184  0.26150056    -0.00700
Br212      Br  0.82251532  0.03192190  0.30366515    -0.00700
Br213      Br  0.60842597  0.01351668  0.44343572    -0.00700
Br214      Br  0.71963362  0.98258784  0.49748460    -0.00700
C215        C  0.16766000  0.82726553  0.55335480    -0.01800
C216        C  0.21398323  0.84725878  0.53425290     0.07900
C217        C  0.21398956  0.88570886  0.49670383    -0.01900
C218        C  0.16727898  0.90453479  0.47842279    -0.01900
C219        C  0.12102169  0.88496029  0.49822182     0.08000
C220        C  0.12116790  0.84587993  0.53503485    -0.02100
Br221      Br  0.05740040  0.81772418  0.56016062    -0.00700
Br222      Br  0.16777347  0.77590085  0.60627080    -0.00700
Br223      Br  0.16647030  0.95826426  0.42812910    -0.00700
Br224      Br  0.27794353  0.91348604  0.47210282    -0.00700
C225        C  0.41521684  0.66858677  0.49989259    -0.01800
C226        C  0.38844059  0.62323260  0.51063695     0.07900
C227        C  0.34108463  0.62480185  0.53723882    -0.01900
C228        C  0.32184232  0.67110952  0.55474848    -0.01900
C229        C  0.34822183  0.71614682  0.54331155     0.08000
C230        C  0.39457798  0.71500013  0.51559330    -0.02100
Br231      Br  0.42916835  0.77735780  0.49848924    -0.00700
Br232      Br  0.48096696  0.66794134  0.46519360    -0.00700
Br233      Br  0.25972700  0.67267691  0.59540222    -0.00700
Br234      Br  0.29993895  0.56457226  0.54643317    -0.00700
C235        C  0.01619620  0.99373439  0.18369482    -0.01800
C236        C  0.03950115  0.04131616  0.17755953     0.07900
C237        C  0.04646388  0.07330719  0.22049464    -0.01900
C238        C  0.02871902  0.05830632  0.26942056    -0.01900
C239        C  0.00371098  0.01144215  0.27522810     0.08000
C240        C  0.99708928  0.97931671  0.23231479    -0.02100
Br241      Br  0.95909143  0.91697024  0.23928875    -0.00700
Br242      Br  0.01071968  0.94819090  0.12569899    -0.00700
Br243      Br  0.04113064  0.10097247  0.32871086    -0.00700
Br244      Br  0.08304414  0.13641764  0.21285069    -0.00700
C245        C  0.41414714  0.71545640  0.00230767    -0.01800
C246        C  0.38176047  0.75777895  0.00676872     0.07900
C247        C  0.32985073  0.75123110  0.02007277    -0.01900
C248        C  0.31147992  0.70317152  0.03342627    -0.01900
C249        C  0.34389871  0.66084560  0.02923728     0.08000
C250        C  0.39477227  0.66691820  0.01212399    -0.02100
Br251      Br  0.43762388  0.60851183  0.00137767    -0.00700
Br252      Br  0.48560845  0.72374745  0.98481537    -0.00700
Br253      Br  0.24286533  0.69664102  0.06048656    -0.00700
Br254      Br  0.28281094  0.80728769  0.01638724    -0.00700
C255        C  0.49461559  0.97149372  0.17464899    -0.01800
C256        C  0.50584303  0.99492957  0.12649465     0.07900
C257        C  0.53380169  0.04100362  0.12583762    -0.01900
C258        C  0.55203674  0.06170952  0.17211696    -0.01900
C259        C  0.54016077  0.03861160  0.21965592     0.08000
C260        C  0.51126986  0.99381535  0.22104026    -0.02100
Br261      Br  0.49392100  0.96377011  0.28699040    -0.00700
Br262      Br  0.45795558  0.90814958  0.17842288    -0.00700
Br263      Br  0.59474617  0.12146280  0.17028896    -0.00700
Br264      Br  0.54470833  0.07930962  0.06276186    -0.00700
C265        C  0.34169255  0.84152325  0.76911654    -0.01800
C266        C  0.37162812  0.88566843  0.77199468     0.07900
C267        C  0.38409467  0.91316118  0.72706455    -0.01900
C268        C  0.36798114  0.89542364  0.67869733    -0.01900
C269        C  0.33930448  0.85050175  0.67568179     0.08000
C270        C  0.32513727  0.82415926  0.72090233    -0.02100
Br271      Br  0.28185159  0.76510295  0.71687061    -0.00700
Br272      Br  0.32228667  0.80556121  0.83137673    -0.00700
Br273      Br  0.38615330  0.93175204  0.61654544    -0.00700
Br274      Br  0.42529543  0.97356034  0.73168290    -0.00700
C275        C  0.21863604  0.98833982  0.97713560    -0.01800
C276        C  0.26349876  0.00126112  0.00399168     0.07900
C277        C  0.26127397  0.03330586  0.04734913    -0.01900
C278        C  0.21402328  0.05208344  0.06425576    -0.01900
C279        C  0.16901631  0.03862239  0.03787839     0.08000
C280        C  0.17123461  0.00696745  0.99425618    -0.02100
Br281      Br  0.10912281  0.98780522  0.95941593    -0.00700
Br282      Br  0.22191391  0.94338010  0.91850601    -0.00700
Br283      Br  0.21107754  0.09675056  0.12325044    -0.00700
Br284      Br  0.32323551  0.05281442  0.08258819    -0.00700
C285        C  0.46965389  0.15500228  0.89758367    -0.01800
C286        C  0.49101745  0.11001239  0.87818198     0.07900
C287        C  0.52996259  0.11191716  0.84038563    -0.01900
C288        C  0.54826291  0.15872373  0.82266653    -0.01900
C289        C  0.52819478  0.20381078  0.84320580     0.08000
C290        C  0.48884643  0.20197837  0.88067603    -0.02100
Br291      Br  0.46299942  0.26369711  0.91023615    -0.00700
Br292      Br  0.41547860  0.15203526  0.94854472    -0.00700
Br293      Br  0.60166103  0.16103669  0.77087422    -0.00700
Br294      Br  0.55777060  0.05016907  0.81236913    -0.00700
C295        C  0.54066963  0.31467367  0.66675823    -0.01800
C296        C  0.53746047  0.34283983  0.71298596     0.07900
C297        C  0.52346535  0.39421086  0.71124806    -0.01900
C298        C  0.51284030  0.41724457  0.66353579    -0.01900
C299        C  0.51489017  0.38866312  0.61759556     0.08000
C300        C  0.52817276  0.33716791  0.61937915    -0.02100
Br301      Br  0.52679809  0.29631483  0.55734980    -0.00700
Br302      Br  0.56535325  0.24612596  0.66717637    -0.00700
Br303      Br  0.49781426  0.48851902  0.66094479    -0.00700
Br304      Br  0.51859242  0.43311355  0.77426784    -0.00700
C305        C  0.12111634  0.52984031  0.03370132    -0.01800
C306        C  0.11787466  0.49565063  0.99232370     0.07900
C307        C  0.16238298  0.47562688  0.96953640    -0.01900
C308        C  0.21061057  0.49067768  0.98777594    -0.01900
C309        C  0.21386828  0.52491318  0.02927634     0.08000
C310        C  0.16908022  0.54408314  0.05254820    -0.02100
Br311      Br  0.17314040  0.58963850  0.11053378    -0.00700
Br312      Br  0.05953939  0.55762359  0.06403658    -0.00700
Br313      Br  0.27208547  0.46415262  0.95670637    -0.00700
Br314      Br  0.15687250  0.42659685  0.91472957    -0.00700
C315        C  0.01841562  0.40178168  0.66911243    -0.01800
C316        C  0.05481802  0.36278365  0.66832396     0.07900
C317        C  0.07231452  0.34149512  0.71477843    -0.01900
C318        C  0.05153033  0.35740558  0.76207660    -0.01900
C319        C  0.01350027  0.39492118  0.76293219     0.08000
C320        C  0.99766467  0.41795918  0.71660672    -0.02100
Br321      Br  0.94552428  0.46926447  0.71806436    -0.00700
Br322      Br  0.99622105  0.43164367  0.60504544    -0.00700
Br323      Br  0.07533851  0.32783272  0.82582109    -0.00700
Br324      Br  0.12423138  0.28981713  0.71333328    -0.00700
C325        C  0.96191696  0.21751862  0.00285178    -0.01800
C326        C  0.99243969  0.26133963  0.00632276     0.07900
C327        C  0.04296669  0.25819815  0.02481730    -0.01900
C328        C  0.06240217  0.21172037  0.04124562    -0.01900
C329        C  0.03208854  0.16780130  0.03754363     0.08000
C330        C  0.98183933  0.17069659  0.01837708    -0.02100
Br331      Br  0.94054580  0.11042330  0.01306125    -0.00700
Br332      Br  0.89234245  0.22172425  0.97873038    -0.00700
Br333      Br  0.12990373  0.20912611  0.07116312    -0.00700
Br334      Br  0.08709535  0.31702022  0.02517203    -0.00700
C335        C  0.75988285  0.34808346  0.83409506    -0.01800
C336        C  0.76333413  0.36810387  0.88472521     0.07900
C337        C  0.71907141  0.37009505  0.91646789    -0.01900
C338        C  0.67203414  0.35217672  0.89770244    -0.01900
C339        C  0.66929253  0.33059740  0.84806245     0.08000
C340        C  0.71332779  0.32828669  0.81641149    -0.02100
Br341      Br  0.71015368  0.29744677  0.74864409    -0.00700
Br342      Br  0.81746110  0.35092749  0.78665679    -0.00700
Br343      Br  0.61065167  0.35941183  0.93900564    -0.00700
Br344      Br  0.72221223  0.39577491  0.98633672    -0.00700
C345        C  0.84389869  0.57163206  0.16846423    -0.01800
C346        C  0.85560444  0.54855918  0.21589349     0.07900
C347        C  0.88330064  0.50318598  0.21693888    -0.01900
C348        C  0.89703599  0.47924896  0.17026820    -0.01900
C349        C  0.88357635  0.50139301  0.12234720     0.08000
C350        C  0.85906373  0.54894385  0.12187445    -0.02100
Br351      Br  0.84991669  0.58598663  0.05805840    -0.00700
Br352      Br  0.80593309  0.63412100  0.16728536    -0.00700
Br353      Br  0.93325002  0.41588265  0.17305015    -0.00700
Br354      Br  0.90289299  0.47463153  0.28260162    -0.00700
C355        C  0.90341940  0.69285165  0.37113299    -0.01800
C356        C  0.85954956  0.69124512  0.33995297     0.07900
C357        C  0.83379122  0.73599853  0.32668863    -0.01900
C358        C  0.85103534  0.78231522  0.34607625    -0.01900
C359        C  0.89393855  0.78368438  0.37861162     0.08000
C360        C  0.92064814  0.73923760  0.39060477    -0.02100
Br361      Br  0.97877572  0.74165422  0.43616693    -0.00700
Br362      Br  0.93834314  0.63126958  0.38891467    -0.00700
Br363      Br  0.81641842  0.84407382  0.32759019    -0.00700
Br364      Br  0.77495923  0.73385214  0.28197396    -0.00700
C365        C  0.62920992  0.55870366  0.34340681    -0.01800
C366        C  0.62645311  0.53292376  0.39140986     0.07900
C367        C  0.67154411  0.52514976  0.42029236    -0.01900
C368        C  0.71911538  0.54033969  0.39993113    -0.01900
C369        C  0.72166017  0.56420763  0.35143240     0.08000
C370        C  0.67676166  0.57456858  0.32384189    -0.02100
Br371      Br  0.68060812  0.61078328  0.25897109    -0.00700
Br372      Br  0.56902569  0.57022592  0.30181554    -0.00700
Br373      Br  0.78124150  0.52753375  0.43765424    -0.00700
Br374      Br  0.66864040  0.49575179  0.48867921    -0.00700
C375        C  0.82234359  0.66712605  0.84266897    -0.01800
C376        C  0.85111775  0.71000565  0.85658287     0.07900
C377        C  0.89666492  0.70482579  0.88469004    -0.01900
C378        C  0.91350823  0.65657263  0.89911001    -0.01900
C379        C  0.88438016  0.61368176  0.88573549     0.08000
C380        C  0.83868291  0.61901623  0.85767174    -0.02100
Br381      Br  0.79922074  0.56036221  0.83792724    -0.00700
Br382      Br  0.76128950  0.67408613  0.80154431    -0.00700
Br383      Br  0.97500258  0.64961365  0.93940392    -0.00700
Br384      Br  0.93489800  0.76402077  0.90465768    -0.00700
C385        C  0.67300830  0.83237057  0.82920499    -0.01800
C386        C  0.71549135  0.83884424  0.86184123     0.07900
C387        C  0.70880026  0.85782320  0.91228059    -0.01900
C388        C  0.65984788  0.87190576  0.92956767    -0.01900
C389        C  0.61757345  0.86750870  0.89613469     0.08000
C390        C  0.62418932  0.84708735  0.84605614    -0.02100
Br391      Br  0.56726970  0.84111929  0.79896216    -0.00700
Br392      Br  0.68126155  0.80162989  0.76181728    -0.00700
Br393      Br  0.65068529  0.89486137  0.99997804    -0.00700
Br394      Br  0.76685683  0.86511947  0.95746717    -0.00700
C395        C  0.87658080  0.89658136  0.72744868    -0.01800
C396        C  0.85248730  0.84909434  0.72913440     0.07900
C397        C  0.84462666  0.82158948  0.68322841    -0.01900
C398        C  0.86075497  0.84157650  0.63557762    -0.01900
C399        C  0.88356255  0.89001296  0.63342766     0.08000
C400        C  0.89205162  0.91720750  0.67970678    -0.02100
Br401      Br  0.92314512  0.98346424  0.67846077    -0.00700
Br402      Br  0.88891824  0.93289772  0.79091242    -0.00700
Br403      Br  0.85409994  0.80045292  0.57404470    -0.00700
Br404      Br  0.81033926  0.75684928  0.68521340    -0.00700
loop_ 
_geom_bond_atom_site_label_1 
_geom_bond_atom_site_label_2 
_geom_bond_distance 
_geom_bond_site_symmetry_2 
_ccdc_geom_bond_type 
C1            C2   1.398       .  A
C1            C6   1.398       .  A
C1          C376   1.468       .  S
C2            C3   1.400       .  A
C2            H7   1.083       .  S
C3            C4   1.400       .  A
C3          C396   1.472       .  S
C4            C5   1.401       .  A
C4            H8   1.087       .  S
C5            C6   1.397       .  A
C5          C386   1.472       .  S
C6            H9   1.087       .  S
C10          C11   1.400       .  A
C10          C15   1.400       .  A
C10         C346   1.470       .  S
C11          C12   1.400       .  A
C11          H16   1.086       .  S
C12          C13   1.395       .  A
C12         C369   1.468       .  S
C13          C14   1.397       .  A
C13          H17   1.084       .  S
C14          C15   1.398       .  A
C14         C356   1.465       .  S
C15          H18   1.088       .  S
Zn19         O23   1.933   1_554  S
Zn19         O24   1.993       .  S
Zn19         O28   1.975   1_655  S
Zn19         O35   1.991       .  S
Zn20         O23   1.940       .  S
Zn20         O25   1.991       .  S
Zn20         O27   2.014   1_556  S
Zn20         O31   2.008       .  S
Zn21         O23   1.956       .  S
Zn21         O26   2.006   1_655  S
Zn21         O29   2.000       .  S
Zn21         O32   2.004       .  S
Zn22         O23   1.938       .  S
Zn22         O30   2.000       .  S
Zn22         O33   1.997       .  S
Zn22         O34   1.999       .  S
O24          C36   1.268       .  A
O25          C37   1.270       .  A
O26          C38   1.271       .  A
O27          C36   1.273       .  A
O28          C38   1.268   1_554  A
O29          C37   1.271       .  A
O30          C39   1.272       .  A
O31          C40   1.273       .  A
O32          C39   1.271       .  A
O33          C40   1.272       .  A
O34          C41   1.270       .  A
O35          C41   1.271   1_554  A
C36         C349   1.480       .  S
C37         C379   1.466       .  S
C38         C306   1.458       .  S
C39         C319   1.465   1_655  S
C40         C336   1.480       .  S
C41         C326   1.468   1_556  S
C42          C43   1.397       .  A
C42          C47   1.405       .  A
C42         C296   1.477       .  S
C43          C44   1.396       .  A
C43          H48   1.087       .  S
C44          C45   1.402       .  A
C44         C339   1.475       .  S
C45          C46   1.403       .  A
C45          H49   1.086       .  S
C46          C47   1.404       .  A
C46         C289   1.476       .  S
C47          H50   1.082       .  S
Zn51         O55   1.934       .  S
Zn51         O56   2.005   1_565  S
Zn51         O60   1.996       .  S
Zn51         O67   1.991   1_556  S
Zn52         O55   1.956       .  S
Zn52         O57   1.996       .  S
Zn52         O59   2.012   1_565  S
Zn52         O63   1.995       .  S
Zn53         O55   1.936       .  S
Zn53         O58   1.989       .  S
Zn53         O61   1.970       .  S
Zn53         O64   1.966       .  S
Zn54         O55   1.951   1_554  S
Zn54         O62   2.024       .  S
Zn54         O65   1.993       .  S
Zn54         O66   2.017       .  S
O56          C68   1.272       .  A
O57          C69   1.270       .  A
O58          C70   1.269       .  A
O59          C68   1.271       .  A
O60          C70   1.270       .  A
O61          C69   1.268       .  A
O62          C71   1.275   1_554  A
O63          C72   1.270       .  A
O64          C71   1.266       .  A
O65          C72   1.270   1_554  A
O66          C73   1.273       .  A
O67          C73   1.271       .  A
C68         C286   1.470       .  S
C69         C266   1.457       .  S
C70         C389   1.472       .  S
C71         C246   1.468   1_556  S
C72         C276   1.462   1_566  S
C73         C256   1.486       .  S
C74          C75   1.398       .  A
C74          C79   1.395       .  A
C74         C236   1.466       .  S
C75          C76   1.398       .  A
C75          H80   1.083       .  S
C76          C77   1.402       .  A
C76         C329   1.473       .  S
C77          C78   1.400       .  A
C77          H81   1.083   1_554  S
C78          C79   1.397       .  A
C78         C279   1.467       .  S
C79          H82   1.087       .  S
C83          C84   1.397       .  A
C83          C88   1.399       .  A
C83         C216   1.464       .  S
C84          C85   1.396       .  A
C84          H89   1.085       .  S
C85          C86   1.399       .  A
C85         C269   1.465       .  S
C86          C87   1.398       .  A
C86          H90   1.087       .  S
C87          C88   1.400       .  A
C87         C229   1.467       .  S
C88          H91   1.081       .  S
Zn92         O96   1.936   1_545  S
Zn92         O97   1.993       .  S
Zn92        O101   1.990       .  S
Zn92        O108   1.982       .  S
Zn93         O96   1.940       .  S
Zn93         O98   1.983       .  S
Zn93        O100   2.001       .  S
Zn93        O104   1.998       .  S
Zn94         O96   1.952       .  S
Zn94         O99   1.981   1_655  S
Zn94        O102   1.989       .  S
Zn94        O105   1.998   1_655  S
Zn95         O96   1.936       .  S
Zn95        O103   1.990   1_655  S
Zn95        O106   1.995       .  S
Zn95        O107   1.997   1_565  S
O97         C109   1.271   1_545  A
O98         C110   1.270       .  A
O99         C111   1.269   1_455  A
O100        C109   1.270       .  A
O101        C111   1.269   1_545  A
O102        C110   1.270       .  A
O103        C112   1.269       .  A
O104        C113   1.272       .  A
O105        C112   1.269       .  A
O106        C113   1.270       .  A
O107        C114   1.272       .  A
O108        C114   1.270       .  A
C109        C206   1.473   1_565  S
C110        C359   1.457       .  S
C111        C239   1.463   1_665  S
C112        C219   1.460       .  S
C113        C399   1.476       .  S
C114        C196   1.468   1_655  S
C115        C116   1.399       .  A
C115        C120   1.401       .  A
C115        C259   1.472       .  S
C116        C117   1.400       .  A
C116        H121   1.086       .  S
C117        C118   1.400       .  A
C117        C209   1.471       .  S
C118        C119   1.400       .  A
C118        H122   1.084       .  S
C119        C120   1.398       .  A
C119        C186   1.470       .  S
C120        H123   1.088       .  S
C124        C125   1.400       .  A
C124        C129   1.399       .  A
C124        C179   1.467       .  S
C125        C126   1.402       .  A
C125        H130   1.082       .  S
C126        C127   1.398       .  A
C126        C199   1.475       .  S
C127        C128   1.397       .  A
C127        H131   1.086       .  S
C128        C129   1.397       .  A
C128        C316   1.466       .  S
C129        H132   1.086       .  S
C133        C134   1.398       .  A
C133        C138   1.399       .  A
C133        C249   1.472       .  S
C134        C135   1.396       .  A
C134        H139   1.084       .  S
C135        C136   1.401       .  A
C135        C166   1.469       .  S
C136        C137   1.402       .  A
C136        H140   1.082       .  S
C137        C138   1.400       .  A
C137        C309   1.469       .  S
C138        H141   1.089   1_554  S
Zn142       O146   1.939       .  S
Zn142       O147   1.987       .  S
Zn142       O151   1.981       .  S
Zn142       O158   1.999       .  S
Zn143       O146   1.945       .  S
Zn143       O148   1.999       .  S
Zn143       O150   2.009       .  S
Zn143       O154   2.001       .  S
Zn144       O146   1.952       .  S
Zn144       O149   2.001       .  S
Zn144       O152   2.005       .  S
Zn144       O155   2.004       .  S
Zn145       O146   1.934       .  S
Zn145       O153   1.994       .  S
Zn145       O156   1.994       .  S
Zn145       O157   1.977       .  S
O147        C159   1.269       .  A
O148        C160   1.271       .  A
O149        C161   1.270       .  A
O150        C159   1.272       .  A
O151        C161   1.269       .  A
O152        C160   1.272       .  A
O153        C162   1.270       .  A
O154        C163   1.272       .  A
O155        C162   1.271       .  A
O156        C163   1.271       .  A
O157        C164   1.267       .  A
O158        C164   1.271       .  A
C159        C299   1.470       .  S
C160        C189   1.467       .  S
C161        C176   1.459       .  S
C162        C169   1.466       .  S
C163        C366   1.477       .  S
C164        C226   1.472       .  S
C165        C166   1.407       .  A
C165        C170   1.405       .  A
C165       Br172   1.928       .  S
C166        C167   1.409       .  A
C167        C168   1.403       .  A
C167       Br174   1.932       .  S
C168        C169   1.409       .  A
C168       Br173   1.932       .  S
C169        C170   1.408       .  A
C170       Br171   1.930       .  S
C175        C176   1.407       .  A
C175        C180   1.405       .  A
C175       Br182   1.929       .  S
C176        C177   1.406       .  A
C177        C178   1.400       .  A
C177       Br184   1.934       .  S
C178        C179   1.409       .  A
C178       Br183   1.927       .  S
C179        C180   1.407       .  A
C180       Br181   1.928       .  S
C185        C186   1.406       .  A
C185        C190   1.404       .  A
C185       Br192   1.930       .  S
C186        C187   1.409       .  A
C187        C188   1.405       .  A
C187       Br194   1.930       .  S
C188        C189   1.409       .  A
C188       Br193   1.932       .  S
C189        C190   1.410       .  A
C190       Br191   1.931       .  S
C195        C196   1.410   1_655  A
C195        C200   1.404       .  A
C195       Br202   1.932       .  S
C196        C197   1.411       .  A
C197        C198   1.401       .  A
C197       Br204   1.937       .  S
C198        C199   1.411       .  A
C198       Br203   1.929       .  S
C199        C200   1.410   1_455  A
C200       Br201   1.932       .  S
C205        C206   1.413       .  A
C205        C210   1.400       .  A
C205       Br212   1.936       .  S
C206        C207   1.413       .  A
C207        C208   1.408       .  A
C207       Br214   1.930   1_545  S
C208        C209   1.408       .  A
C208       Br213   1.929       .  S
C209        C210   1.407       .  A
C210       Br211   1.933       .  S
C215        C216   1.407       .  A
C215        C220   1.399       .  A
C215       Br222   1.929       .  S
C216        C217   1.407       .  A
C217        C218   1.405       .  A
C217       Br224   1.929       .  S
C218        C219   1.408       .  A
C218       Br223   1.928       .  S
C219        C220   1.406       .  A
C220       Br221   1.933       .  S
C225        C226   1.416       .  A
C225        C230   1.404       .  A
C225       Br232   1.934       .  S
C226        C227   1.413       .  A
C227        C228   1.402       .  A
C227       Br234   1.936       .  S
C228        C229   1.407       .  A
C228       Br233   1.929       .  S
C229        C230   1.404       .  A
C230       Br231   1.931       .  S
C235        C236   1.407   1_565  A
C235        C240   1.402   1_455  A
C235       Br242   1.931       .  S
C236        C237   1.409       .  A
C237        C238   1.401       .  A
C237       Br244   1.934       .  S
C238        C239   1.409       .  A
C238       Br243   1.934       .  S
C239        C240   1.410   1_445  A
C240       Br241   1.933       .  S
C245        C246   1.412       .  A
C245        C250   1.403       .  A
C245       Br252   1.932   1_554  S
C246        C247   1.408       .  A
C247        C248   1.402       .  A
C247       Br254   1.934       .  S
C248        C249   1.412       .  A
C248       Br253   1.929       .  S
C249        C250   1.408       .  A
C250       Br251   1.933       .  S
C255        C256   1.419       .  A
C255        C260   1.409       .  A
C255       Br262   1.933       .  S
C256        C257   1.421   1_565  A
C257        C258   1.402       .  A
C257       Br264   1.939       .  S
C258        C259   1.405       .  A
C258       Br263   1.935       .  S
C259        C260   1.406   1_545  A
C260       Br261   1.932       .  S
C265        C266   1.408       .  A
C265        C270   1.400       .  A
C265       Br272   1.934       .  S
C266        C267   1.407       .  A
C267        C268   1.403       .  A
C267       Br274   1.931       .  S
C268        C269   1.408       .  A
C268       Br273   1.929       .  S
C269        C270   1.408       .  A
C270       Br271   1.932       .  S
C275        C276   1.409   1_566  A
C275        C280   1.405   1_565  A
C275       Br282   1.930       .  S
C276        C277   1.408       .  A
C277        C278   1.401       .  A
C277       Br284   1.933       .  S
C278        C279   1.409       .  A
C278       Br283   1.932       .  S
C279        C280   1.407   1_554  A
C280       Br281   1.929   1_545  S
C285        C286   1.409       .  A
C285        C290   1.409       .  A
C285       Br292   1.930       .  S
C286        C287   1.407       .  A
C287        C288   1.404       .  A
C287       Br294   1.932       .  S
C288        C289   1.409       .  A
C288       Br293   1.929       .  S
C289        C290   1.409       .  A
C290       Br291   1.928       .  S
C295        C296   1.411       .  A
C295        C300   1.403       .  A
C295       Br302   1.930       .  S
C296        C297   1.411       .  A
C297        C298   1.406       .  A
C297       Br304   1.932       .  S
C298        C299   1.410       .  A
C298       Br303   1.931       .  S
C299        C300   1.410       .  A
C300       Br301   1.936       .  S
C305        C306   1.405   1_554  A
C305        C310   1.400       .  A
C305       Br312   1.934       .  S
C306        C307   1.406       .  A
C307        C308   1.406       .  A
C307       Br314   1.929       .  S
C308        C309   1.408   1_556  A
C308       Br313   1.927       .  S
C309        C310   1.409       .  A
C310       Br311   1.928       .  S
C315        C316   1.407       .  A
C315        C320   1.407   1_455  A
C315       Br322   1.929   1_455  S
C316        C317   1.406       .  A
C317        C318   1.400       .  A
C317       Br324   1.931       .  S
C318        C319   1.408       .  A
C318       Br323   1.932       .  S
C319        C320   1.409   1_455  A
C320       Br321   1.929       .  S
C325        C326   1.410       .  A
C325        C330   1.406       .  A
C325       Br332   1.931   1_554  S
C326        C327   1.411   1_655  A
C327        C328   1.401       .  A
C327       Br334   1.937       .  S
C328        C329   1.410       .  A
C328       Br333   1.933       .  S
C329        C330   1.410   1_455  A
C330       Br331   1.931       .  S
C335        C336   1.416       .  A
C335        C340   1.404       .  A
C335       Br342   1.937       .  S
C336        C337   1.416       .  A
C337        C338   1.407       .  A
C337       Br344   1.933       .  S
C338        C339   1.407       .  A
C338       Br343   1.932       .  S
C339        C340   1.410       .  A
C340       Br341   1.936       .  S
C345        C346   1.406       .  A
C345        C350   1.402       .  A
C345       Br352   1.934       .  S
C346        C347   1.406       .  A
C347        C348   1.408       .  A
C347       Br354   1.931       .  S
C348        C349   1.417       .  A
C348       Br353   1.932       .  S
C349        C350   1.415       .  A
C350       Br351   1.936       .  S
C355        C356   1.407       .  A
C355        C360   1.403       .  A
C355       Br362   1.929       .  S
C356        C357   1.409       .  A
C357        C358   1.400       .  A
C357       Br364   1.931       .  S
C358        C359   1.407       .  A
C358       Br363   1.934       .  S
C359        C360   1.407       .  A
C360       Br361   1.930       .  S
C365        C366   1.418       .  A
C365        C370   1.403       .  A
C365       Br372   1.937       .  S
C366        C367   1.415       .  A
C367        C368   1.405       .  A
C367       Br374   1.932       .  S
C368        C369   1.405       .  A
C368       Br373   1.931       .  S
C369        C370   1.406       .  A
C370       Br371   1.934       .  S
C375        C376   1.409       .  A
C375        C380   1.401       .  A
C375       Br382   1.933       .  S
C376        C377   1.406       .  A
C377        C378   1.405       .  A
C377       Br384   1.930       .  S
C378        C379   1.411       .  A
C378       Br383   1.931       .  S
C379        C380   1.410       .  A
C380       Br381   1.934       .  S
C385        C386   1.410       .  A
C385        C390   1.403       .  A
C385       Br392   1.935       .  S
C386        C387   1.408       .  A
C387        C388   1.405       .  A
C387       Br394   1.931       .  S
C388        C389   1.412       .  A
C388       Br393   1.933       .  S
C389        C390   1.413       .  A
C390       Br391   1.935       .  S
C395        C396   1.406       .  A
C395        C400   1.406       .  A
C395       Br402   1.931       .  S
C396        C397   1.409       .  A
C397        C398   1.402       .  A
C397       Br404   1.934       .  S
C398        C399   1.415       .  A
C398       Br403   1.937       .  S
C399        C400   1.415       .  A
C400       Br401   1.933       .  S
