geometry optimzed in LAMMPS
_audit_creation_date              2020-11-30 
_audit_creation_method            'lammps2cif' 
_symmetry_space_group_name_H-M    'P1' 
_symmetry_Int_Tables_number       1 
_symmetry_cell_setting            triclinic 
loop_ 
_symmetry_equiv_pos_as_xyz 
  x,y,z 
_cell_length_a                    34.92095405 
_cell_length_b                    33.54621111533856 
_cell_length_c                    33.490821833225766 
_cell_angle_alpha                 90.26591999552073 
_cell_angle_beta                  90.14775894863868 
_cell_angle_gamma                 90.01286267306601 
loop_ 
_atom_site_label 
_atom_site_type_symbol 
_atom_site_fract_x 
_atom_site_fract_y 
_atom_site_fract_z 
_atom_site_charge 
O1          O  0.25858528  0.18355331  0.38782018    -0.87100
O2          O  0.25462649  0.18817958  0.61234974    -0.87300
O3          O  0.31547405  0.13303243  0.49761571    -0.89000
O4          O  0.18740653  0.14453215  0.49911118    -0.87700
O5          O  0.14596013  0.19774930  0.50129586    -0.87300
O6          O  0.36563879  0.17755370  0.49913986    -0.88700
O7          O  0.25068551  0.13858720  0.56509648    -0.87100
O8          O  0.25108098  0.13538767  0.43549284    -0.86700
Zr9        Zr  0.25427139  0.16964105  0.49971137     2.84300
O10         O  0.21943733  0.21429005  0.53946530    -1.08700
O11         O  0.29768119  0.20588949  0.46067577    -1.09400
C12         C  0.25379020  0.14698228  0.39887606     1.06000
C13         C  0.25126688  0.15135992  0.60155225     1.05900
C14         C  0.35165739  0.14188600  0.49789062     1.08900
C15         C  0.15334504  0.16013772  0.50051760     1.06700
H16         H  0.31064379  0.18922498  0.55630245     0.32300
O17         O  0.29640688  0.20724797  0.53949413    -1.29700
H18         H  0.20232498  0.19768167  0.44221771     0.31900
O19         O  0.21944977  0.21291448  0.45907882    -1.31300
O20         O  0.26596986  0.31580792  0.61259641    -0.87100
O21         O  0.26463445  0.31295948  0.38703086    -0.88600
O22         O  0.36888564  0.23711644  0.56621187    -0.87200
O23         O  0.15381833  0.26163954  0.56458181    -0.87200
O24         O  0.15592302  0.25973714  0.43176856    -0.86900
O25         O  0.36909132  0.24397071  0.43445087    -0.86800
O26         O  0.33429242  0.35968645  0.50165951    -0.87100
O27         O  0.20524122  0.36816451  0.50013688    -0.86600
O28         O  0.37539508  0.30619652  0.50563001    -0.87700
O29         O  0.15576930  0.32298349  0.49624540    -0.86800
O30         O  0.32201920  0.24302294  0.61372004    -0.87200
O31         O  0.32287449  0.24260665  0.38567022    -0.86900
O32         O  0.20340276  0.25148229  0.38516472    -0.86600
O33         O  0.20097187  0.25606496  0.61210538    -0.87000
O34         O  0.26882056  0.36567068  0.56607199    -0.87300
O35         O  0.26853661  0.36396309  0.43282610    -0.88600
Zr36       Zr  0.26171363  0.25175435  0.57879655     2.83100
Zr37       Zr  0.26287302  0.24895443  0.42049352     2.83500
Zr38       Zr  0.33874280  0.24449819  0.50050294     2.84100
Zr39       Zr  0.18463014  0.25770260  0.49872811     2.83400
Zr40       Zr  0.26802074  0.33308731  0.49954216     2.84200
O41         O  0.22734737  0.29396526  0.45925308    -1.09200
O42         O  0.30364408  0.28928162  0.53995006    -1.08700
C43         C  0.26743247  0.35290502  0.60262228     1.06000
C44         C  0.26633993  0.35025581  0.39657500     1.08600
C45         C  0.35696408  0.23741508  0.60279447     1.06100
C46         C  0.16585393  0.25963731  0.60113924     1.06500
C47         C  0.16836122  0.25616225  0.39552495     1.06100
C48         C  0.35789267  0.24300421  0.39752330     1.05600
C49         C  0.36821783  0.34394829  0.50480317     1.06100
C50         C  0.16911609  0.35868786  0.49831668     1.05600
H51         H  0.32099775  0.30316015  0.44316248     0.32200
O52         O  0.30379732  0.28819409  0.45998128    -1.30300
H53         H  0.21130938  0.31306672  0.55584379     0.32300
O54         O  0.22612825  0.29544246  0.53904433    -1.31700
N55         N  0.01505078  0.06288195  0.49817326    -0.37200
N56         N  0.45322844  0.50529361  0.49753768    -0.57800
N57         N  0.00923372  0.43868030  0.49247779    -0.37200
N58         N  0.07029015  0.49781304  0.48473379    -0.57800
C59         C  0.48288032  0.08796787  0.49381629     0.26400
C60         C  0.04579948  0.08384013  0.48510960     0.26400
C61         C  0.47655500  0.41956503  0.48601007     0.26300
C62         C  0.03841974  0.41498849  0.47986012     0.26300
C63         C  0.43364057  0.03836986  0.51311518     0.35000
C64         C  0.43176751  0.47338038  0.50782340     0.35000
C65         C  0.09532302  0.02992622  0.48566463     0.35000
C66         C  0.09193241  0.46444309  0.48044211     0.35000
C67         C  0.49414024  0.12461807  0.47885568    -0.22500
C68         C  0.03367903  0.12090179  0.47196317    -0.22500
C69         C  0.48489525  0.38207762  0.47075160    -0.22500
C70         C  0.02320031  0.37975907  0.46474612    -0.22500
C71         C  0.40033770  0.02712752  0.53252195    -0.23600
C72         C  0.39944048  0.48569094  0.52837939    -0.23600
C73         C  0.13275430  0.01664023  0.48237125    -0.23600
C74         C  0.12948378  0.47514151  0.47231956    -0.23600
C75         C  0.44476675  0.07811356  0.50498886    -0.18900
C76         C  0.08457466  0.07069180  0.48475119    -0.18900
C77         C  0.07828911  0.42442232  0.48129296    -0.18900
C78         C  0.43912624  0.43351379  0.49631880    -0.18900
H79         H  0.47616956  0.15000526  0.47215094     0.14000
H80         H  0.05106617  0.14423772  0.45912144     0.14000
H81         H  0.46495272  0.35876214  0.46253531     0.14000
H82         H  0.03833981  0.35485756  0.45164486     0.14000
H83         H  0.37959024  0.04616414  0.54711314     0.12300
H84         H  0.37696193  0.46714484  0.54050664     0.12300
H85         H  0.15874636  0.03401509  0.48025226     0.12300
H86         H  0.15327979  0.45631461  0.46399896     0.12300
H87         H  0.01596680  0.03566334  0.51289846     0.25500
H88         H  0.01212652  0.46511401  0.50853098     0.25500
O89         O  0.48054342  0.42990041  0.88769919    -0.87100
O90         O  0.47744886  0.43283006  0.11263896    -0.87300
O91         O  0.03731724  0.37531928  0.99951378    -0.89000
O92         O  0.41182196  0.38661478  0.00046917    -0.87700
O93         O  0.37004371  0.43950903  0.99567346    -0.87300
O94         O  0.08742704  0.41956955  0.00413051    -0.88700
O95         O  0.47439365  0.38215502  0.06645213    -0.87100
O96         O  0.47593893  0.38010393  0.93405485    -0.86700
Zr97       Zr  0.47705663  0.41322962  0.99994455     2.84300
O98         O  0.44089090  0.45802867  0.03879263    -1.08700
O99         O  0.02016209  0.44998414  0.96164135    -1.09400
C100        C  0.47783430  0.39287298  0.89759678     1.06000
C101        C  0.47597608  0.39572325  0.10274865     1.05900
C102        C  0.07341130  0.38400791  0.00183581     1.08900
C103        C  0.37789318  0.40181684  0.99767725     1.06700
H104        H  0.03167287  0.43280504  0.05885720     0.32300
O105        O  0.01775030  0.45062700  0.04146826    -1.29700
H106        H  0.42549097  0.44257898  0.94135233     0.31900
O107        O  0.44247533  0.45729877  0.95879679    -1.31300
O108        O  0.49104403  0.05904211  0.11140577    -0.87100
O109        O  0.49212567  0.06071925  0.88733430    -0.88600
O110        O  0.08871953  0.48129157  0.07027104    -0.87200
O111        O  0.37511494  0.50628002  0.06300679    -0.87200
O112        O  0.37985072  0.51063018  0.93070711    -0.86900
O113        O  0.09294619  0.48346303  0.93696635    -0.86800
O114        O  0.06061652  0.10146152  0.00222367    -0.87100
O115        O  0.43118741  0.11299896  0.99682553    -0.86600
O116        O  0.10159422  0.04780844  0.00427682    -0.87700
O117        O  0.38079323  0.06877089  0.99852609    -0.86800
O118        O  0.04028314  0.48947562  0.11578910    -0.87200
O119        O  0.04693315  0.49006366  0.88842736    -0.86900
O120        O  0.42698117  0.50274372  0.88376138    -0.86600
O121        O  0.42075527  0.49986436  0.11193876    -0.87000
O122        O  0.49425159  0.10867862  0.06476359    -0.87300
O123        O  0.49846674  0.10940564  0.93532300    -0.88600
Zr124      Zr  0.48203828  0.49593882  0.07883340     2.83100
Zr125      Zr  0.48575273  0.49428162  0.92063488     2.83500
Zr126      Zr  0.06134932  0.48672113  0.00289720     2.84100
Zr127      Zr  0.40681090  0.50196416  0.99785586     2.83400
Zr128      Zr  0.49278639  0.07637769  0.99952734     2.84200
O129        O  0.45046608  0.03935448  0.95935204    -1.09200
O130        O  0.02833347  0.03189833  0.03922302    -1.08700
C131        C  0.49379939  0.09596085  0.10112180     1.06000
C132        C  0.49697027  0.09718901  0.89875283     1.08600
C133        C  0.07552972  0.48383541  0.10631755     1.06100
C134        C  0.38598214  0.50431174  0.09995117     1.06500
C135        C  0.39220109  0.50960615  0.89425475     1.06100
C136        C  0.08182999  0.48615765  0.90004273     1.05600
C137        C  0.09449263  0.08551087  0.00439175     1.06100
C138        C  0.39485466  0.10451233  0.99739428     1.05600
H139        H  0.04695748  0.04785761  0.94350016     0.32200
O140        O  0.02934544  0.03289216  0.95973807    -1.30300
H141        H  0.43526188  0.05675043  0.05502381     0.32300
O142        O  0.44987243  0.03900878  0.03820702    -1.31700
N143        N  0.23577026  0.30743001  0.01536999    -0.37200
N144        N  0.29398711  0.24391309  0.00980066    -0.57800
N145        N  0.23248680  0.18479604  0.00748894    -0.37200
N146        N  0.17480576  0.24897642  0.00738711    -0.57800
C147        C  0.26795373  0.32981324  0.01196095     0.26400
C148        C  0.20507320  0.33183504  0.01049071     0.26400
C149        C  0.26331322  0.16266799  0.99649618     0.26300
C150        C  0.20050823  0.16551687  0.99458896     0.26300
C151        C  0.31541556  0.27494997  0.02329748     0.35000
C152        C  0.31387276  0.21010200  0.01800527     0.35000
C153        C  0.15446986  0.28086872  0.02015422     0.35000
C154        C  0.15308154  0.21660694  0.01504682     0.35000
C155        C  0.25722843  0.36924924  0.00578600    -0.22500
C156        C  0.21794245  0.37031180  0.00396436    -0.22500
C157        C  0.25071305  0.12897604  0.97620121    -0.22500
C158        C  0.21124325  0.13099478  0.97460747    -0.22500
C159        C  0.34909401  0.26061984  0.03999917    -0.23600
C160        C  0.34776855  0.21975923  0.03731852    -0.23600
C161        C  0.12013658  0.26855636  0.03675340    -0.23600
C162        C  0.11903539  0.22788227  0.03304020    -0.23600
C163        C  0.30619113  0.31601939  0.01841324    -0.18900
C164        C  0.16594500  0.32096922  0.01524479    -0.18900
C165        C  0.16213558  0.17747324  0.00280953    -0.18900
C166        C  0.30217662  0.17099484  0.00660507    -0.18900
H167        H  0.27509302  0.39544952  0.00451118     0.14000
H168        H  0.20102071  0.39697330  0.99977507     0.14000
H169        H  0.26812927  0.10539256  0.96364247     0.14000
H170        H  0.19269858  0.10930270  0.96041053     0.14000
H171        H  0.37214631  0.27752778  0.05346398     0.12300
H172        H  0.36924710  0.19965306  0.04890906     0.12300
H173        H  0.09820663  0.28683319  0.05040294     0.12300
H174        H  0.09592655  0.20875104  0.04274898     0.12300
H175        H  0.23489246  0.27806743  0.02485424     0.25500
H176        H  0.23300999  0.20937498  0.02657042     0.25500
C177        C  0.05026137  0.25012289  0.27616354     0.85900
C178        C  0.04716573  0.21379985  0.24816533    -0.54400
C179        C  0.51202329  0.21105160  0.22794975     0.08800
C180        C  0.48381368  0.24490040  0.23851240     0.19700
C181        C  0.04112512  0.28599152  0.24945301    -0.55100
C182        C  0.50641101  0.28301760  0.22873836     0.08900
C183        C  0.51559204  0.24549406  0.30287329    -0.54600
C184        C  0.48100203  0.24487780  0.28450074     0.09500
H185        H  0.06985224  0.19253163  0.24249237     0.14000
H186        H  0.45562216  0.24251814  0.22337162    -0.00300
H187        H  0.06119800  0.31034302  0.24544634     0.14300
H188        H  0.51868179  0.24428353  0.33516634     0.14100
C189        C  0.19586450  0.49281487  0.22332108     0.85900
C190        C  0.20878360  0.45631117  0.24703525    -0.54400
C191        C  0.24279334  0.46106915  0.26690661     0.08800
C192        C  0.26167899  0.50203392  0.25965676     0.19700
C193        C  0.19941186  0.02690286  0.25265554    -0.55100
C194        C  0.23368536  0.03124323  0.27220963     0.08900
C195        C  0.22907727  0.50244454  0.19554707    -0.54600
C196        C  0.26355196  0.50678005  0.21378935     0.09500
H197        H  0.19075437  0.43014661  0.25023366     0.14000
H198        H  0.28966061  0.50608201  0.27497919    -0.00300
H199        H  0.17530417  0.04601956  0.25942986     0.14300
H200        H  0.22568824  0.50408297  0.16331832     0.14100
C201        C  0.04870598  0.25211903  0.72206231     0.85900
C202        C  0.03594464  0.28895717  0.74585904    -0.54400
C203        C  0.50043444  0.28230563  0.76643072     0.08800
C204        C  0.48315413  0.24032985  0.76068817     0.19700
C205        C  0.04987033  0.21849776  0.75350613    -0.55100
C206        C  0.51572811  0.21253220  0.77374134     0.08900
C207        C  0.51325406  0.23939115  0.69551197    -0.54600
C208        C  0.47976682  0.23374187  0.71515560     0.09500
H209        H  0.05354818  0.31552903  0.74868223     0.14000
H210        H  0.45598130  0.23570036  0.77720521    -0.00300
H211        H  0.07458956  0.20034104  0.76036452     0.14300
H212        H  0.51550097  0.23705507  0.66322117     0.14100
C213        C  0.20118885  0.49724037  0.77977474     0.85900
C214        C  0.20048881  0.03250354  0.74698711    -0.54400
C215        C  0.23417817  0.03658007  0.72685421     0.08800
C216        C  0.26382543  0.50710353  0.73809127     0.19700
C217        C  0.21334495  0.46022398  0.75580413    -0.55100
C218        C  0.24552489  0.46550519  0.73296985     0.08900
C219        C  0.23620492  0.50860134  0.80446035    -0.54600
C220        C  0.26903175  0.51365208  0.78345532     0.09500
H221        H  0.17661853  0.05222073  0.74119323     0.14000
H222        H  0.29041723  0.51149955  0.72052329    -0.00300
H223        H  0.19595989  0.43340922  0.75449508     0.14300
H224        H  0.23515879  0.51134004  0.83677438     0.14100
C225        C  0.09768883  0.50515114  0.17371106    -0.14000
C226        C  0.10273792  0.48110737  0.13967978     0.08200
C227        C  0.13443652  0.45576526  0.13744844    -0.14000
C228        C  0.16224899  0.45690863  0.16732442    -0.14000
C229        C  0.15996283  0.48497589  0.19878715     0.08200
C230        C  0.12621957  0.50742471  0.20289937    -0.14000
H231        H  0.07272469  0.52411620  0.17652896     0.12200
H232        H  0.13820158  0.43594366  0.11212431     0.12200
H233        H  0.18732739  0.43816060  0.16410728     0.12200
H234        H  0.12208684  0.52797869  0.22735346     0.12200
C235        C  0.32518410  0.53317149  0.12568783    -0.14000
C236        C  0.35652181  0.50776111  0.13118064     0.08200
C237        C  0.35963933  0.48599279  0.16688601    -0.14000
C238        C  0.33061161  0.48787232  0.19563000    -0.14000
C239        C  0.29839152  0.51189913  0.18920261     0.08200
C240        C  0.29665248  0.53558348  0.15462020    -0.14000
H241        H  0.32259842  0.55090098  0.09885105     0.12200
H242        H  0.38373582  0.46626550  0.17177128     0.12200
H243        H  0.33227432  0.46888318  0.22164134     0.12200
H244        H  0.27223683  0.55472357  0.14913887     0.12200
C245        C  0.00669845  0.35257552  0.20205774    -0.14000
C246        C  0.49398977  0.31276732  0.19842908     0.08200
C247        C  0.47135597  0.30161924  0.16524248    -0.14000
C248        C  0.46472900  0.32842513  0.13396860    -0.14000
C249        C  0.47923136  0.36734640  0.13622966     0.08200
C250        C  0.99918226  0.37934813  0.17140523    -0.14000
H251        H  0.02275342  0.36297696  0.22775523     0.12200
H252        H  0.45969279  0.27194116  0.16253513     0.12200
H253        H  0.44861711  0.31868838  0.10801714     0.12200
H254        H  0.01038623  0.40935780  0.17416339     0.12200
C255        C  0.50109141  0.11316582  0.17361334    -0.14000
C256        C  0.49705751  0.12570275  0.13373236     0.08200
C257        C  0.00372576  0.16680335  0.12575105    -0.14000
C258        C  0.00712395  0.19463154  0.15671979    -0.14000
C259        C  0.50526277  0.18177439  0.19592248     0.08200
C260        C  0.50535146  0.14100051  0.20439591    -0.14000
H261        H  0.50148180  0.08180083  0.18108432     0.12200
H262        H  0.00466419  0.17727636  0.09523446     0.12200
H263        H  0.01154556  0.22569960  0.14954141     0.12200
H264        H  0.50894041  0.13076390  0.23480606     0.12200
C265        C  0.13652057  0.35363926  0.01686758    -0.17100
C266        C  0.10093885  0.35047002  0.00115301    -0.32200
H267        H  0.14480738  0.38179653  0.03048080     0.12000
H268        H  0.09172559  0.32282711  0.98716024     0.12500
C269        C  0.34537524  0.37379948  0.99451834    -0.17100
C270        C  0.33840715  0.34559223  0.02208345    -0.32200
H271        H  0.32681604  0.37658116  0.96864202     0.12000
H272        H  0.35795248  0.34313821  0.04721611     0.12500
C273        C  0.36762286  0.13896042  0.99628659    -0.17100
C274        C  0.33017158  0.13643654  0.00672868    -0.32200
H275        H  0.37911614  0.16740178  0.98673031     0.12000
H276        H  0.31898442  0.10740150  0.01497681     0.12500
C277        C  0.12859821  0.11162457  0.00814117    -0.17100
C278        C  0.12879107  0.14989077  0.99666046    -0.32200
H279        H  0.15442826  0.09868979  0.02073063     0.12000
H280        H  0.10245362  0.16255204  0.98486951     0.12500
C281        C  0.36841061  0.49874244  0.82420239    -0.14000
C282        C  0.36430277  0.51684621  0.86200329     0.08200
C283        C  0.33256081  0.54123391  0.86923953    -0.14000
C284        C  0.30379572  0.54460470  0.84068115    -0.14000
C285        C  0.30523865  0.52207541  0.80511810     0.08200
C286        C  0.33879057  0.50105632  0.79595891    -0.14000
H287        H  0.39320538  0.48050314  0.81759844     0.12200
H288        H  0.38314587  0.05942348  0.83251979     0.12200
H289        H  0.33076363  0.05856877  0.78233290     0.12200
H290        H  0.34076908  0.48374337  0.76867360     0.12200
C291        C  0.14493304  0.46450079  0.87177386    -0.14000
C292        C  0.11081596  0.48599566  0.86798631     0.08200
C293        C  0.10402581  0.50749072  0.83267875    -0.14000
C294        C  0.13188592  0.50977095  0.80291319    -0.14000
C295        C  0.16712953  0.49005516  0.80744199     0.08200
C296        C  0.17224409  0.46557946  0.84133491    -0.14000
H297        H  0.15048481  0.44693322  0.89822122     0.12200
H298        H  0.07753710  0.52380410  0.82861812     0.12200
H299        H  0.12554645  0.52749269  0.77694941     0.12200
H300        H  0.19859985  0.44904110  0.84536616     0.12200
C301        C  0.47582143  0.12821032  0.83512314    -0.14000
C302        C  0.50161410  0.12709243  0.86726233     0.08200
C303        C  0.03476112  0.15243815  0.86629683    -0.14000
C304        C  0.03969863  0.17970223  0.83529141    -0.14000
C305        C  0.51133283  0.18286468  0.80577796     0.08200
C306        C  0.48029359  0.15638568  0.80492212    -0.14000
H307        H  0.45194841  0.10761630  0.83372020     0.12200
H308        H  0.05717911  0.14897040  0.88843587     0.12200
H309        H  0.06565932  0.19734045  0.83431525     0.12200
H310        H  0.45986668  0.15714364  0.78054124     0.12200
C311        C  0.97861951  0.32291275  0.87016874    -0.14000
C312        C  0.47829098  0.36360042  0.86386881     0.08200
C313        C  0.48184357  0.37747312  0.82432648    -0.14000
C314        C  0.48739466  0.35102442  0.79252826    -0.14000
C315        C  0.48870774  0.30988620  0.79911274     0.08200
C316        C  0.98317189  0.29658480  0.83782214    -0.14000
H317        H  0.97342655  0.31088787  0.89961314     0.12200
H318        H  0.48183835  0.40907055  0.81789238     0.12200
H319        H  0.49165058  0.36279025  0.76280602     0.12200
H320        H  0.98196641  0.26480198  0.84318616     0.12200
C321        C  0.38134863  0.24949106  0.67220825    -0.14000
C322        C  0.38538625  0.23075995  0.63476367     0.08200
C323        C  0.41724758  0.20631585  0.62788084    -0.14000
C324        C  0.44604398  0.20335222  0.65662896    -0.14000
C325        C  0.44418540  0.22591647  0.69217112     0.08200
C326        C  0.41072421  0.24732114  0.70065943    -0.14000
H327        H  0.35661978  0.26794264  0.67846132     0.12200
H328        H  0.42041250  0.19043643  0.59983099     0.12200
H329        H  0.47109983  0.18554929  0.64985709     0.12200
H330        H  0.40855858  0.26491259  0.72774711     0.12200
C331        C  0.10749579  0.28775363  0.63386752    -0.14000
C332        C  0.13783785  0.26056460  0.63370566     0.08200
C333        C  0.14256447  0.23462779  0.66607543    -0.14000
C334        C  0.11580596  0.23367520  0.69683178    -0.17000
C335        C  0.08369200  0.25895225  0.69595548     0.08200
C336        C  0.08116765  0.28756407  0.66521654    -0.14000
H337        H  0.10403080  0.30882007  0.60970832     0.12200
H338        H  0.16634144  0.21388131  0.66680491     0.12200
H339        H  0.11998275  0.21177269  0.71983452     0.12200
H340        H  0.05708219  0.30787725  0.66399116     0.12200
C341        C  0.25889498  0.13106949  0.67291295    -0.14000
C342        C  0.24770691  0.12157973  0.63358495     0.08200
C343        C  0.23246655  0.08362998  0.62535119    -0.14000
C344        C  0.22789082  0.05603110  0.65597074    -0.14000
C345        C  0.23913679  0.06572777  0.69495366     0.08200
C346        C  0.25479285  0.10316986  0.70338057    -0.14000
H347        H  0.27096015  0.15997336  0.68010773     0.12200
H348        H  0.22339580  0.07554177  0.59544367     0.12200
H349        H  0.21537128  0.02719660  0.64934352     0.12200
H350        H  0.26357000  0.11080645  0.73350957     0.12200
C351        C  0.25730031  0.36892318  0.67515604    -0.14000
C352        C  0.26588048  0.38228090  0.63630477     0.08200
C353        C  0.27090112  0.42346653  0.63041186    -0.14000
C354        C  0.26635411  0.45046025  0.66232465    -0.14000
C355        C  0.25613920  0.43690081  0.70061222     0.08200
C356        C  0.25231170  0.39580249  0.70668606    -0.14000
H357        H  0.25320322  0.33753445  0.68118684     0.12200
H358        H  0.27757175  0.43489465  0.60105657     0.12200
H359        H  0.26919317  0.48203598  0.65656845     0.12200
H360        H  0.24470696  0.38441262  0.73581495     0.12200
C361        C  0.37912206  0.10820602  0.49594307    -0.17100
C362        C  0.41600583  0.11141187  0.50803317    -0.32200
H363        H  0.36859521  0.08013525  0.48398860     0.12000
H364        H  0.42608174  0.14006093  0.51909493     0.12500
C365        C  0.11961882  0.13341204  0.50252738    -0.17100
C366        C  0.11639792  0.10045402  0.47985969    -0.32200
H367        H  0.09654036  0.14155612  0.52266800     0.12000
H368        H  0.13936040  0.09372825  0.45908200     0.12500
C369        C  0.14056017  0.39123833  0.50043454    -0.17100
C370        C  0.10702495  0.39069554  0.47984482    -0.32200
H371        H  0.14757836  0.41637585  0.51959660     0.12000
H372        H  0.10058919  0.36451661  0.46193499     0.12500
C373        C  0.40447419  0.40696667  0.49289508    -0.17100
C374        C  0.40244760  0.37017313  0.50845364    -0.32200
H375        H  0.37901518  0.41934282  0.47891190     0.12000
H376        H  0.42752028  0.35793018  0.52322280     0.12500
C377        C  0.14471904  0.23056421  0.33045013    -0.14000
C378        C  0.14075343  0.25705371  0.36277213     0.08200
C379        C  0.11137612  0.28520185  0.36262925    -0.14000
C380        C  0.08503140  0.28551108  0.33144176    -0.14000
C381        C  0.08597048  0.25584223  0.30138906     0.08200
C382        C  0.11733519  0.22964718  0.30008803    -0.14000
H383        H  0.16814098  0.20938893  0.32959917     0.12200
H384        H  0.10872262  0.30674167  0.38667743     0.12200
H385        H  0.06178769  0.30687814  0.33257792     0.12200
H386        H  0.12044130  0.20754339  0.27684442     0.12200
C387        C  0.41953780  0.26864728  0.37311623    -0.14000
C388        C  0.38745730  0.24470803  0.36642334     0.08200
C389        C  0.38336763  0.22473004  0.32949932    -0.14000
C390        C  0.41280587  0.22625893  0.30101357    -0.14000
C391        C  0.44596445  0.24846221  0.30908849     0.08200
C392        C  0.44786583  0.27136402  0.34440454    -0.14000
H393        H  0.42261742  0.28558216  0.40057426     0.12200
H394        H  0.35819128  0.20682622  0.32340674     0.12200
H395        H  0.41047853  0.20878879  0.27384537     0.12200
H396        H  0.47223310  0.29039897  0.35067573     0.12200
C397        C  0.27368309  0.41940031  0.36730156    -0.14000
C398        C  0.26449029  0.37879764  0.36268628     0.08200
C399        C  0.25207527  0.36523502  0.32494391    -0.14000
C400        C  0.24745111  0.39160225  0.29325038    -0.14000
C401        C  0.25496415  0.43239870  0.29824734     0.08200
C402        C  0.26918509  0.44591857  0.33526620    -0.14000
H403        H  0.28356539  0.43079961  0.39581771     0.12200
H404        H  0.24467240  0.33424307  0.32004008     0.12200
H405        H  0.23682983  0.38016737  0.26502508     0.12200
H406        H  0.27492435  0.47727208  0.34015254     0.12200
C407        C  0.26065497  0.09520546  0.29804247    -0.14000
C408        C  0.23978504  0.06026625  0.30481400     0.08200
C409        C  0.22518363  0.05274525  0.34299343    -0.14000
C410        C  0.23077603  0.08030748  0.37398604    -0.14000
C411        C  0.25042632  0.11625175  0.36700600     0.08200
C412        C  0.26560455  0.12319528  0.32875974    -0.14000
H413        H  0.27251779  0.10110238  0.26880409     0.12200
H414        H  0.20939345  0.02556985  0.34872738     0.12200
H415        H  0.21878974  0.07400199  0.40307847     0.12200
H416        H  0.28125998  0.15033488  0.32257050     0.12200
O417        O  0.25632583  0.68580718  0.38681690    -0.87100
O418        O  0.25553996  0.68686972  0.61212724    -0.87300
O419        O  0.31610508  0.63282840  0.49648843    -0.89000
O420        O  0.18890324  0.64307542  0.49928628    -0.87700
O421        O  0.14686852  0.69584177  0.50162747    -0.87300
O422        O  0.36608729  0.67744229  0.49971720    -0.88700
O423        O  0.25087671  0.63760493  0.56459386    -0.87100
O424        O  0.25081728  0.63714827  0.43429596    -0.86700
Zr425      Zr  0.25501626  0.66943118  0.49953987     2.84300
O426        O  0.22008352  0.71357528  0.53967652    -1.08700
O427        O  0.29734313  0.70667948  0.46049712    -1.09400
C428        C  0.25202350  0.64917907  0.39770970     1.06000
C429        C  0.25146457  0.65016873  0.60112812     1.05900
C430        C  0.35224612  0.64173371  0.49743821     1.08900
C431        C  0.15474698  0.65828598  0.50088192     1.06700
H432        H  0.31181357  0.68845876  0.55694357     0.32300
O433        O  0.29733382  0.70627229  0.54010980    -1.29700
H434        H  0.20197859  0.69779677  0.44299387     0.31900
O435        O  0.21922605  0.71288607  0.45984855    -1.31300
O436        O  0.26692078  0.81515831  0.61209434    -0.87100
O437        O  0.26379020  0.81420280  0.38856162    -0.88600
O438        O  0.36882850  0.74024478  0.56703762    -0.87200
O439        O  0.15520236  0.75934496  0.56668282    -0.87200
O440        O  0.15366870  0.75985475  0.43384408    -0.86900
O441        O  0.36894284  0.74387642  0.43539940    -0.86800
O442        O  0.33373847  0.85934038  0.50206212    -0.87100
O443        O  0.20476573  0.86734604  0.50273484    -0.86600
O444        O  0.37518211  0.80615291  0.50595142    -0.87700
O445        O  0.15524573  0.82220491  0.49868766    -0.86800
O446        O  0.32233696  0.74675829  0.61480928    -0.87200
O447        O  0.32207007  0.74420241  0.38711385    -0.86900
O448        O  0.20081125  0.75275990  0.38669852    -0.86600
O449        O  0.20271475  0.75371056  0.61385739    -0.87000
O450        O  0.27051074  0.86504679  0.56571836    -0.87300
O451        O  0.26837810  0.86488146  0.43448948    -0.88600
Zr452      Zr  0.26232439  0.75085224  0.57908834     2.83100
Zr453      Zr  0.26151459  0.74989261  0.42106158     2.83500
Zr454      Zr  0.33871299  0.74436182  0.50096916     2.84100
Zr455      Zr  0.18426870  0.75695365  0.49993194     2.83400
Zr456      Zr  0.26755101  0.83252859  0.50015888     2.84200
O457        O  0.22595889  0.79430866  0.46012957    -1.09200
O458        O  0.30349409  0.78880736  0.54015995    -1.08700
C459        C  0.26931033  0.85216376  0.60207497     1.06000
C460        C  0.26594303  0.85140501  0.39824124     1.08600
C461        C  0.35728256  0.74212438  0.60371605     1.06100
C462        C  0.16757482  0.75678335  0.60308723     1.06500
C463        C  0.16567519  0.75682659  0.39739287     1.06100
C464        C  0.35718269  0.74371221  0.39874100     1.05600
C465        C  0.36775924  0.84385082  0.50518306     1.06100
C466        C  0.16865082  0.85786726  0.50118099     1.05600
H467        H  0.32034422  0.80316203  0.44382833     0.32200
O468        O  0.30325263  0.78802336  0.46060665    -1.30300
H469        H  0.21144990  0.81204626  0.55719046     0.32300
O470        O  0.22609533  0.79459635  0.54002249    -1.31700
N471        N  0.01503602  0.56298450  0.49760735    -0.37200
N472        N  0.45243509  0.00570946  0.49957843    -0.57800
N473        N  0.00999049  0.93930276  0.49243845    -0.37200
N474        N  0.07104919  0.99835861  0.48641807    -0.57800
C475        C  0.48370094  0.58822531  0.49392400     0.26400
C476        C  0.04631009  0.58446677  0.48697904     0.26400
C477        C  0.47538005  0.92038471  0.48719239     0.26300
C478        C  0.03953947  0.91542901  0.48115705     0.26300
C479        C  0.43429204  0.53787986  0.51116346     0.35000
C480        C  0.43056063  0.97395652  0.50928856     0.35000
C481        C  0.09463356  0.52922563  0.48168249     0.35000
C482        C  0.09313051  0.96513612  0.48420055     0.35000
C483        C  0.49536756  0.62577242  0.48169309    -0.22500
C484        C  0.03508070  0.62315468  0.47833565    -0.22500
C485        C  0.48368995  0.88317769  0.47124462    -0.22500
C486        C  0.02470933  0.87925565  0.46791220    -0.22500
C487        C  0.40129616  0.52643018  0.53096538    -0.23600
C488        C  0.39805297  0.98642247  0.52946424    -0.23600
C489        C  0.13142470  0.51560436  0.47437936    -0.23600
C490        C  0.13127253  0.97613702  0.48008163    -0.23600
C491        C  0.44539500  0.57783699  0.50385024    -0.18900
C492        C  0.08464230  0.57024868  0.48370030    -0.18900
C493        C  0.07940809  0.92510126  0.48320633    -0.18900
C494        C  0.43791157  0.93416497  0.49759353    -0.18900
H495        H  0.47768391  0.65170919  0.47642258     0.14000
H496        H  0.05285610  0.64741542  0.46803364     0.14000
H497        H  0.46372684  0.86012518  0.46236828     0.14000
H498        H  0.04023131  0.85362394  0.45687516     0.14000
H499        H  0.38064829  0.54535203  0.54584970     0.12300
H500        H  0.37515857  0.96803161  0.54097665     0.12300
H501        H  0.15725184  0.53270372  0.46972244     0.12300
H502        H  0.15592628  0.95762299  0.47419478     0.12300
H503        H  0.01522061  0.53415622  0.50871482     0.25500
H504        H  0.01251357  0.96644603  0.50724892     0.25500
O505        O  0.48195944  0.93225708  0.88537396    -0.87100
O506        O  0.48016928  0.93110596  0.10990942    -0.87300
O507        O  0.04014382  0.87629469  0.99618161    -0.89000
O508        O  0.41503994  0.88533444  0.99814618    -0.87700
O509        O  0.37252026  0.93777748  0.99582737    -0.87300
O510        O  0.09029980  0.92056151  0.99933949    -0.88700
O511        O  0.47873708  0.88073127  0.06341747    -0.87100
O512        O  0.47850931  0.88204046  0.93146832    -0.86700
Zr513      Zr  0.47977999  0.91343705  0.99782479     2.84300
O514        O  0.44348338  0.95723536  0.03773396    -1.08700
O515        O  0.02150294  0.95182214  0.95822355    -1.09400
C516        C  0.48001906  0.89512788  0.89517103     1.06000
C517        C  0.47945045  0.89400760  0.09982879     1.05900
C518        C  0.07628090  0.88496535  0.99774698     1.08900
C519        C  0.38084209  0.90008649  0.99648601     1.06700
H520        H  0.03531614  0.93301552  0.05554647     0.32300
O521        O  0.02103398  0.95094988  0.03861476    -1.29700
H522        H  0.42726002  0.94294894  0.94049786     0.31900
O523        O  0.44414417  0.95775955  0.95794745    -1.31300
O524        O  0.48615022  0.56010923  0.11301512    -0.87100
O525        O  0.48996586  0.55868342  0.88764070    -0.88600
O526        O  0.09298126  0.98231696  0.06569525    -0.87200
O527        O  0.37748433  0.00484646  0.06359663    -0.87200
O528        O  0.37941534  0.00573659  0.93153647    -0.86900
O529        O  0.09430154  0.98446883  0.93332769    -0.86800
O530        O  0.05879995  0.60101645  0.00362077    -0.87100
O531        O  0.43034677  0.61293740  0.99506869    -0.86600
O532        O  0.09951410  0.54727189  0.00801194    -0.87700
O533        O  0.37981726  0.56894956  0.99759275    -0.86800
O534        O  0.04531242  0.98937845  0.11226689    -0.87200
O535        O  0.04754796  0.99301890  0.88580682    -0.86900
O536        O  0.42678217  0.00556421  0.88406996    -0.86600
O537        O  0.42415427  0.00041052  0.11173858    -0.87000
O538        O  0.49314821  0.60856978  0.06547482    -0.87300
O539        O  0.49721694  0.60775827  0.93518802    -0.88600
Zr540      Zr  0.48482917  0.99508170  0.07764917     2.83100
Zr541      Zr  0.48620897  0.99607236  0.91972336     2.83500
Zr542      Zr  0.06354481  0.98751196  0.99933032     2.84100
Zr543      Zr  0.40817922  0.00132787  0.99800299     2.83400
Zr544      Zr  0.49176426  0.57608448  0.00000662     2.84200
O545        O  0.45031228  0.53847487  0.95958575    -1.09200
O546        O  0.02541538  0.53155857  0.04159104    -1.08700
C547        C  0.49045321  0.59670088  0.10206004     1.06000
C548        C  0.49491478  0.59520615  0.89877831     1.08600
C549        C  0.08047745  0.98463116  0.10199801     1.06100
C550        C  0.38912008  0.00409802  0.10033210     1.06500
C551        C  0.39158779  0.00706471  0.89510744     1.06100
C552        C  0.08250199  0.98802056  0.89679337     1.05600
C553        C  0.09261950  0.58506400  0.00703107     1.06100
C554        C  0.39400191  0.60448178  0.99563246     1.05600
H555        H  0.04567137  0.54583883  0.94557690     0.32200
O556        O  0.02788779  0.53116525  0.96180709    -1.30300
H557        H  0.43318532  0.55783790  0.05494192     0.32300
O558        O  0.44793652  0.53984091  0.03856137    -1.31700
N559        N  0.23744839  0.80684641  0.01590792    -0.37200
N560        N  0.29424069  0.74299740  0.01212954    -0.57800
N561        N  0.23209938  0.68356489  0.01017286    -0.37200
N562        N  0.17564482  0.74826294  0.00798659    -0.57800
C563        C  0.26982255  0.82886140  0.01156762     0.26400
C564        C  0.20698541  0.83122555  0.00978803     0.26400
C565        C  0.26290652  0.66111948  0.99982431     0.26300
C566        C  0.20008189  0.66395942  0.99771329     0.26300
C567        C  0.31706561  0.77400015  0.02297368     0.35000
C568        C  0.31438320  0.70914513  0.01911577     0.35000
C569        C  0.15554768  0.78083355  0.01954104     0.35000
C570        C  0.15289143  0.71642688  0.01512044     0.35000
C571        C  0.25946783  0.86802783  0.00359196    -0.22500
C572        C  0.22017684  0.86931123  0.00173932    -0.22500
C573        C  0.25022360  0.62671399  0.98077233    -0.22500
C574        C  0.21077940  0.62870277  0.97907520    -0.22500
C575        C  0.35188146  0.75963853  0.03675279    -0.23600
C576        C  0.34987517  0.71880593  0.03513285    -0.23600
C577        C  0.12038845  0.76944007  0.03489973    -0.23600
C578        C  0.11848272  0.72875486  0.03155531    -0.23600
C579        C  0.30801756  0.81505175  0.01799707    -0.18900
C580        C  0.16771564  0.82076845  0.01421890    -0.18900
C581        C  0.16164453  0.67667619  0.00442695    -0.18900
C582        C  0.30199002  0.67002742  0.00857867    -0.18900
H583        H  0.27768035  0.89382320  0.00059960     0.14000
H584        H  0.20341666  0.89581843  0.99611310     0.14000
H585        H  0.26759519  0.60280003  0.96877800     0.14000
H586        H  0.19225782  0.60668958  0.96535149     0.14000
H587        H  0.37632059  0.77658127  0.04716950     0.12300
H588        H  0.37225051  0.69876708  0.04483564     0.12300
H589        H  0.09834025  0.78836960  0.04739255     0.12300
H590        H  0.09462730  0.71030518  0.04061069     0.12300
H591        H  0.23608827  0.77791994  0.02662845     0.25500
H592        H  0.23273338  0.70894181  0.02815154     0.25500
C593        C  0.04706119  0.75057769  0.27676084     0.85900
C594        C  0.04426040  0.71442677  0.24824226    -0.54400
C595        C  0.50910796  0.71215948  0.22854697     0.08800
C596        C  0.48108692  0.74590749  0.23916208     0.19700
C597        C  0.03796815  0.78666992  0.25008647    -0.55100
C598        C  0.50376606  0.78392183  0.22919985     0.08900
C599        C  0.51318537  0.74713983  0.30344779    -0.54600
C600        C  0.47859321  0.74587829  0.28507690     0.09500
H601        H  0.06705836  0.69333412  0.24245228     0.14000
H602        H  0.45292169  0.74381031  0.22380024    -0.00300
H603        H  0.05767529  0.81139771  0.24627329     0.14300
H604        H  0.51614515  0.74678271  0.33578797     0.14100
C605        C  0.19918960  0.99228301  0.22182364     0.85900
C606        C  0.21115316  0.95575390  0.24611701    -0.54400
C607        C  0.24474620  0.96046549  0.26684409     0.08800
C608        C  0.26437705  0.00099890  0.25961529     0.19700
C609        C  0.19620997  0.52721730  0.25416629    -0.55100
C610        C  0.23075851  0.53192200  0.27295480     0.08900
C611        C  0.23307186  0.00117215  0.19485368    -0.54600
C612        C  0.26714467  0.00556278  0.21381436     0.09500
H613        H  0.19277536  0.92984170  0.24930271     0.14000
H614        H  0.29208988  0.00470344  0.27555682    -0.00300
H615        H  0.17206020  0.54618795  0.26123739     0.14300
H616        H  0.23031691  0.00274049  0.16255489     0.14100
C617        C  0.04964417  0.74698948  0.72254159     0.85900
C618        C  0.03986645  0.78367797  0.74797445    -0.54400
C619        C  0.50457534  0.78037960  0.76884193     0.08800
C620        C  0.48438576  0.74007089  0.76188607     0.19700
C621        C  0.04852301  0.71192579  0.75223807    -0.55100
C622        C  0.51509795  0.70928232  0.77335315     0.08900
C623        C  0.51393017  0.73955500  0.69649851    -0.54600
C624        C  0.48025850  0.73588911  0.71626380     0.09500
H625        H  0.05907175  0.80900170  0.75090155     0.14000
H626        H  0.45701192  0.73683163  0.77836894    -0.00300
H627        H  0.07195267  0.69166595  0.75821219     0.14300
H628        H  0.51572918  0.73816166  0.66412106     0.14100
C629        C  0.20032665  0.99705289  0.77619995     0.85900
C630        C  0.19843750  0.53075010  0.74820864    -0.54400
C631        C  0.23133265  0.53558076  0.72665226     0.08800
C632        C  0.26466440  0.00533247  0.73705442     0.19700
C633        C  0.21088941  0.96087217  0.74999809    -0.55100
C634        C  0.24424240  0.96552346  0.72892403     0.08900
C635        C  0.23524023  0.00425427  0.80255609    -0.54600
C636        C  0.26890178  0.00742658  0.78271538     0.09500
H637        H  0.17368340  0.54948444  0.74310946     0.14000
H638        H  0.29202063  0.00889081  0.72058251    -0.00300
H639        H  0.19261770  0.93482827  0.74695121     0.14300
H640        H  0.23381351  0.00461230  0.83500111     0.14100
C641        C  0.10344797  0.00796555  0.16817787    -0.14000
C642        C  0.10822710  0.98285714  0.13491665     0.08200
C643        C  0.13928384  0.95659132  0.13375831    -0.14000
C644        C  0.16624004  0.95700514  0.16461239    -0.14000
C645        C  0.16385162  0.98527253  0.19598262     0.08200
C646        C  0.13107016  0.00943042  0.19830163    -0.14000
H647        H  0.07913474  0.02795711  0.16994165     0.12200
H648        H  0.14292567  0.93621138  0.10885618     0.12200
H649        H  0.19074362  0.93731404  0.16241121     0.12200
H650        H  0.12698460  0.03064830  0.22216784     0.12200
C651        C  0.32844979  0.03286037  0.12612545    -0.14000
C652        C  0.36024820  0.00819948  0.13198684     0.08200
C653        C  0.36423349  0.98764342  0.16831498    -0.14000
C654        C  0.33518273  0.98923272  0.19703880    -0.14000
C655        C  0.30221008  0.01190041  0.18993215     0.08200
C656        C  0.30004410  0.03521653  0.15510999    -0.14000
H657        H  0.32530392  0.04986408  0.09887841     0.12200
H658        H  0.38887515  0.96876321  0.17357586     0.12200
H659        H  0.33735588  0.97081707  0.22341836     0.12200
H660        H  0.27522350  0.05368616  0.14929162     0.12200
C661        C  0.99833301  0.85312945  0.20362901    -0.14000
C662        C  0.49249513  0.81225081  0.19748146     0.08200
C663        C  0.47790874  0.79845837  0.16070835    -0.14000
C664        C  0.47286415  0.82481749  0.12870114    -0.14000
C665        C  0.48157459  0.86546532  0.13340933     0.08200
C666        C  0.99215792  0.87974347  0.17238420    -0.14000
H667        H  0.00839652  0.86449730  0.23210677     0.12200
H668        H  0.47216388  0.76706169  0.15609721     0.12200
H669        H  0.46283269  0.81335483  0.10025723     0.12200
H670        H  0.99795213  0.91101315  0.17785107     0.12200
C671        C  0.47620838  0.62088950  0.17158063    -0.14000
C672        C  0.49306834  0.62727174  0.13397620     0.08200
C673        C  0.01358510  0.66120899  0.12834163    -0.14000
C674        C  0.01870730  0.68910392  0.15892729    -0.14000
C675        C  0.50209867  0.68357981  0.19589311     0.08200
C676        C  0.48044192  0.64908323  0.20225275    -0.14000
H677        H  0.45988683  0.59406276  0.17727902     0.12200
H678        H  0.02642225  0.66689241  0.09952052     0.12200
H679        H  0.03511804  0.71587432  0.15318935     0.12200
H680        H  0.46758985  0.64362349  0.23112195     0.12200
C681        C  0.13871535  0.85391645  0.01464393    -0.17100
C682        C  0.10372981  0.85129645  0.99744356    -0.32200
H683        H  0.14690250  0.88193809  0.02863513     0.12000
H684        H  0.09471276  0.82374048  0.98313791     0.12500
C685        C  0.34853496  0.87160814  0.99304130    -0.17100
C686        C  0.34037143  0.84460109  0.02149299    -0.32200
H687        H  0.33084961  0.87329075  0.96640270     0.12000
H688        H  0.35891144  0.84306845  0.04753431     0.12500
C689        C  0.36656643  0.63844012  0.99395968    -0.17100
C690        C  0.33014551  0.63588361  0.00765609    -0.32200
H691        H  0.37700649  0.66643225  0.98205784     0.12000
H692        H  0.32002361  0.60723576  0.01837582     0.12500
C693        C  0.12688933  0.61123608  0.01104156    -0.17100
C694        C  0.12801758  0.64916274  0.99821322    -0.32200
H695        H  0.15219430  0.59852076  0.02494602     0.12000
H696        H  0.10223767  0.66167005  0.98501465     0.12500
C697        C  0.33587490  0.97619733  0.86340112    -0.14000
C698        C  0.36270279  0.00699282  0.86349953     0.08200
C699        C  0.36206677  0.03573393  0.83300359    -0.14000
C700        C  0.33276292  0.03493931  0.80417505    -0.14000
C701        C  0.30487465  0.00486468  0.80550850     0.08200
C702        C  0.30767985  0.97474146  0.83431228    -0.14000
H703        H  0.33663906  0.95329096  0.88610786     0.12200
H704        H  0.32937899  0.55670968  0.89750997     0.12200
H705        H  0.27885060  0.56241438  0.84785020     0.12200
H706        H  0.28659519  0.95106871  0.83554097     0.12200
C707        C  0.14061123  0.95998945  0.86343877    -0.14000
C708        C  0.11072691  0.98771154  0.86438179     0.08200
C709        C  0.10686145  0.01508772  0.83309471    -0.14000
C710        C  0.13394130  0.01673762  0.80266385    -0.14000
C711        C  0.16545212  0.99064290  0.80264326     0.08200
C712        C  0.16722246  0.96087219  0.83234145    -0.14000
H713        H  0.14346481  0.93791979  0.88677115     0.12200
H714        H  0.08349505  0.03634495  0.83298062     0.12200
H715        H  0.13033778  0.03953003  0.78043573     0.12200
H716        H  0.19083812  0.93993727  0.83289779     0.12200
C717        C  0.47202978  0.62792421  0.83657924    -0.14000
C718        C  0.49935184  0.62482510  0.86718504     0.08200
C719        C  0.01566193  0.66183651  0.87403416    -0.14000
C720        C  0.02069518  0.68927868  0.84326729    -0.14000
C721        C  0.50972208  0.67991308  0.80541628     0.08200
C722        C  0.47688681  0.65586391  0.80617010    -0.14000
H723        H  0.44684883  0.60904838  0.83650705     0.12200
H724        H  0.02566565  0.66951852  0.90372088     0.12200
H725        H  0.03424534  0.71765824  0.84966807     0.12200
H726        H  0.45543195  0.65825179  0.78288683     0.12200
C727        C  0.97534934  0.82609090  0.86732793    -0.14000
C728        C  0.48109199  0.86572191  0.86184781     0.08200
C729        C  0.49158673  0.87828585  0.82333339    -0.14000
C730        C  0.49752080  0.85066823  0.79272220    -0.14000
C731        C  0.49263044  0.80981741  0.79958389     0.08200
C732        C  0.98059296  0.79831819  0.83639510    -0.14000
H733        H  0.96554606  0.81567817  0.89609686     0.12200
H734        H  0.49684533  0.90944957  0.81709740     0.12200
H735        H  0.50692777  0.86120470  0.76384418     0.12200
H736        H  0.97519963  0.76711658  0.84224001     0.12200
C737        C  0.38346845  0.75872569  0.67177689    -0.14000
C738        C  0.38613695  0.73750227  0.63547892     0.08200
C739        C  0.41656297  0.71103605  0.62968541    -0.14000
C740        C  0.44491114  0.70725924  0.65860920    -0.14000
C741        C  0.44434444  0.73106747  0.69326367     0.08200
C742        C  0.41268688  0.75578200  0.70046351    -0.14000
H743        H  0.35984854  0.77899587  0.67702119     0.12200
H744        H  0.41866817  0.69355747  0.60249315     0.12200
H745        H  0.46870590  0.68737975  0.65274884     0.12200
H746        H  0.41179694  0.77463011  0.72679548     0.12200
C747        C  0.11007629  0.78431137  0.63663873    -0.14000
C748        C  0.13974686  0.75650746  0.63555470     0.08200
C749        C  0.14346725  0.72856566  0.66638897    -0.14000
C750        C  0.11598226  0.72635702  0.69644353    -0.17000
C751        C  0.08469659  0.75275337  0.69648385     0.08200
C752        C  0.08333242  0.78303073  0.66735505    -0.14000
H753        H  0.10746653  0.80675657  0.61363494     0.12200
H754        H  0.16685097  0.70731996  0.66626783     0.12200
H755        H  0.11899905  0.70309054  0.71831425     0.12200
H756        H  0.05987991  0.80416169  0.66692582     0.12200
C757        C  0.25982488  0.62865599  0.67198459    -0.14000
C758        C  0.24669983  0.62040313  0.63306949     0.08200
C759        C  0.22807547  0.58398683  0.62534404    -0.14000
C760        C  0.22228782  0.55663362  0.65610924    -0.14000
C761        C  0.23548524  0.56512772  0.69475600     0.08200
C762        C  0.25454252  0.60101304  0.70250545    -0.14000
H763        H  0.27449334  0.65633300  0.67875820     0.12200
H764        H  0.21749191  0.57692915  0.59571367     0.12200
H765        H  0.20786217  0.52871638  0.64974761     0.12200
H766        H  0.26527457  0.60758330  0.73219333     0.12200
C767        C  0.26105113  0.86854944  0.67441306    -0.14000
C768        C  0.26879730  0.88156849  0.63532052     0.08200
C769        C  0.27305774  0.92266869  0.62850175    -0.14000
C770        C  0.26750638  0.95005362  0.65969763    -0.14000
C771        C  0.25668564  0.93682372  0.69783229     0.08200
C772        C  0.25465571  0.89586736  0.70513814    -0.14000
H773        H  0.25809552  0.83715339  0.68108653     0.12200
H774        H  0.27949419  0.93371365  0.59893087     0.12200
H775        H  0.26981056  0.98156430  0.65346998     0.12200
H776        H  0.24708690  0.88499630  0.73447886     0.12200
C777        C  0.37975173  0.60806215  0.49502318    -0.17100
C778        C  0.41652011  0.61100126  0.50750185    -0.32200
H779        H  0.36935357  0.58020603  0.48242970     0.12000
H780        H  0.42636652  0.63937392  0.51945082     0.12500
C781        C  0.12157440  0.63104011  0.50365426    -0.17100
C782        C  0.11677559  0.59972316  0.47900188    -0.32200
H783        H  0.09999935  0.63763707  0.52602990     0.12000
H784        H  0.13822466  0.59446505  0.45615087     0.12500
C785        C  0.14015961  0.89031667  0.50405443    -0.17100
C786        C  0.10812656  0.89152187  0.48117229    -0.32200
H787        H  0.14596329  0.91390294  0.52551707     0.12000
H788        H  0.10294396  0.86702359  0.46059033     0.12500
C789        C  0.40335085  0.90748385  0.49409356    -0.17100
C790        C  0.40178660  0.87034004  0.50889811    -0.32200
H791        H  0.37766734  0.91991570  0.48061612     0.12000
H792        H  0.42707309  0.85806541  0.52323678     0.12500
C793        C  0.14041125  0.72948799  0.33348605    -0.14000
C794        C  0.13741994  0.75722709  0.36484816     0.08200
C795        C  0.10838463  0.78586028  0.36387981    -0.14000
C796        C  0.08196105  0.78590411  0.33254005    -0.14000
C797        C  0.08254631  0.75579701  0.30285698     0.08200
C798        C  0.11309140  0.72847115  0.30294819    -0.14000
H799        H  0.16319882  0.70756490  0.33342561     0.12200
H800        H  0.10615887  0.80811775  0.38730890     0.12200
H801        H  0.05913086  0.80777096  0.33305188     0.12200
H802        H  0.11565390  0.70539626  0.28061231     0.12200
C803        C  0.41596397  0.77285410  0.37149190    -0.14000
C804        C  0.38623864  0.74530292  0.36754462     0.08200
C805        C  0.38385854  0.72114695  0.33317591    -0.14000
C806        C  0.41279270  0.72269389  0.30427900    -0.14000
C807        C  0.44362844  0.74895580  0.30947047     0.08200
C808        C  0.44396584  0.77519096  0.34237344    -0.14000
H809        H  0.41750802  0.79259877  0.39716323     0.12200
H810        H  0.36050063  0.70017521  0.32953988     0.12200
H811        H  0.41209781  0.70224588  0.27916999     0.12200
H812        H  0.46702310  0.79645681  0.34646829     0.12200
C813        C  0.27081163  0.92104506  0.36960579    -0.14000
C814        C  0.26430328  0.87994941  0.36445189     0.08200
C815        C  0.25455709  0.86570997  0.32610699    -0.14000
C816        C  0.25010260  0.89171404  0.29417673    -0.14000
C817        C  0.25550489  0.93274032  0.29941746     0.08200
C818        C  0.26671213  0.94719147  0.33722628    -0.14000
H819        H  0.27838164  0.93303028  0.39865155     0.12200
H820        H  0.24920408  0.83434342  0.32075313     0.12200
H821        H  0.24154216  0.87976493  0.26541029     0.12200
H822        H  0.27068343  0.97881675  0.34220588     0.12200
C823        C  0.25396833  0.59831623  0.29622549    -0.14000
C824        C  0.23690822  0.56160143  0.30483858     0.08200
C825        C  0.22515675  0.55339761  0.34390072    -0.14000
C826        C  0.23055172  0.58164597  0.37422530    -0.14000
C827        C  0.24742605  0.61876955  0.36580477     0.08200
C828        C  0.25897195  0.62683599  0.32640916    -0.14000
H829        H  0.26306719  0.60498701  0.26608874     0.12200
H830        H  0.21178177  0.52513276  0.35085654     0.12200
H831        H  0.22095107  0.57465889  0.40411448     0.12200
H832        H  0.27205044  0.65510451  0.31894875     0.12200
O833        O  0.75774477  0.18307329  0.38699160    -0.87100
O834        O  0.75488998  0.18677784  0.61143444    -0.87300
O835        O  0.81538013  0.13150523  0.49816298    -0.89000
O836        O  0.68717927  0.14395443  0.49916159    -0.87700
O837        O  0.64601015  0.19746698  0.50143694    -0.87300
O838        O  0.86578398  0.17568840  0.49963453    -0.88700
O839        O  0.74930998  0.13715178  0.56437906    -0.87100
O840        O  0.74947936  0.13509765  0.43485057    -0.86700
Zr841      Zr  0.75400780  0.16862738  0.49934683     2.84300
O842        O  0.71935688  0.21388832  0.53871593    -1.08700
O843        O  0.79737538  0.20430665  0.45985859    -1.09400
C844        C  0.75232524  0.14679629  0.39830111     1.06000
C845        C  0.75066458  0.14998880  0.60077769     1.05900
C846        C  0.85169768  0.14007410  0.49867525     1.08900
C847        C  0.65325544  0.15979546  0.50073494     1.06700
H848        H  0.81051273  0.18790944  0.55633427     0.32300
O849        O  0.79630877  0.20582950  0.53937049    -1.29700
H850        H  0.70168371  0.19719866  0.44214640     0.31900
O851        O  0.71903330  0.21225781  0.45891553    -1.31300
O852        O  0.76526037  0.31483109  0.61202254    -0.87100
O853        O  0.76374095  0.31092298  0.38510996    -0.88600
O854        O  0.86894451  0.23670786  0.56573500    -0.87200
O855        O  0.65351742  0.26247641  0.56400111    -0.87200
O856        O  0.65531632  0.26042021  0.43164518    -0.86900
O857        O  0.86868993  0.24090997  0.43382786    -0.86800
O858        O  0.83496616  0.35767962  0.49864776    -0.87100
O859        O  0.70671156  0.36846429  0.49813395    -0.86600
O860        O  0.87582969  0.30401684  0.50307494    -0.87700
O861        O  0.65672898  0.32387638  0.49510619    -0.86800
O862        O  0.82243526  0.24453450  0.61337233    -0.87200
O863        O  0.82246725  0.24121608  0.38501949    -0.86900
O864        O  0.70260063  0.25099598  0.38504261    -0.86600
O865        O  0.70039380  0.25455661  0.61146975    -0.87000
O866        O  0.76896216  0.36433923  0.56515946    -0.87300
O867        O  0.76721948  0.36167716  0.43118533    -0.88600
Zr868      Zr  0.76165858  0.25079233  0.57836305     2.83100
Zr869      Zr  0.76247764  0.24779186  0.41990366     2.83500
Zr870      Zr  0.83865194  0.24255706  0.49987710     2.84100
Zr871      Zr  0.68447607  0.25767828  0.49830689     2.83400
Zr872      Zr  0.76851345  0.33180235  0.49845852     2.84200
O873        O  0.72738974  0.29315168  0.45850309    -1.09200
O874        O  0.80374973  0.28774853  0.53902127    -1.08700
C875        C  0.76702179  0.35183140  0.60180924     1.06000
C876        C  0.76487783  0.34815819  0.39485595     1.08600
C877        C  0.85735258  0.23860089  0.60239728     1.06100
C878        C  0.66531661  0.25930086  0.60054624     1.06500
C879        C  0.66762486  0.25633597  0.39542894     1.06100
C880        C  0.85747291  0.24076700  0.39692261     1.05600
C881        C  0.86882597  0.34179751  0.50159613     1.06100
C882        C  0.67047483  0.35951323  0.49643420     1.05600
H883        H  0.82117054  0.30118663  0.44214603     0.32200
O884        O  0.80396645  0.28646369  0.45917576    -1.30300
H885        H  0.71177841  0.31268982  0.55509483     0.32300
O886        O  0.72648133  0.29482703  0.53844176    -1.31700
N887        N  0.51412955  0.06409980  0.49753546    -0.37200
N888        N  0.95298479  0.50459698  0.49755207    -0.57800
N889        N  0.50992863  0.43989521  0.49136880    -0.37200
N890        N  0.57064970  0.49920420  0.48401385    -0.57800
C891        C  0.98360892  0.08635124  0.49350875     0.26400
C892        C  0.54496343  0.08519587  0.48499194     0.26400
C893        C  0.97577586  0.41918453  0.48507677     0.26300
C894        C  0.53931084  0.41585854  0.47982083     0.26300
C895        C  0.93477670  0.03665359  0.51280207     0.35000
C896        C  0.93130719  0.47273863  0.50764036     0.35000
C897        C  0.59414400  0.03079907  0.48380420     0.35000
C898        C  0.59254285  0.46603902  0.47934396     0.35000
C899        C  0.99462140  0.12252346  0.47731478    -0.22500
C900        C  0.53313520  0.12285744  0.47331678    -0.22500
C901        C  0.98392876  0.38280067  0.46718238    -0.22500
C902        C  0.52419491  0.37944570  0.46759642    -0.22500
C903        C  0.90194590  0.02498913  0.53276650    -0.23600
C904        C  0.89904438  0.48517547  0.52822384    -0.23600
C905        C  0.63143382  0.01742194  0.47940132    -0.23600
C906        C  0.63001475  0.47724259  0.47145069    -0.23600
C907        C  0.94553142  0.07649681  0.50488688    -0.18900
C908        C  0.58356598  0.07164487  0.48367807    -0.18900
C909        C  0.57924691  0.42579863  0.48017320    -0.18900
C910        C  0.93842534  0.43289641  0.49574176    -0.18900
H911        H  0.97641084  0.14743634  0.46961565     0.14000
H912        H  0.55065456  0.14652183  0.46128826     0.14000
H913        H  0.96388115  0.36066283  0.45635063     0.14000
H914        H  0.53937767  0.35367954  0.45638824     0.14000
H915        H  0.88148681  0.04372202  0.54816265     0.12300
H916        H  0.87645845  0.46672849  0.54027506     0.12300
H917        H  0.65736341  0.03476982  0.47643812     0.12300
H918        H  0.65397584  0.45880183  0.46282151     0.12300
H919        H  0.51492917  0.03641324  0.51130073     0.25500
H920        H  0.51264127  0.46732042  0.50555507     0.25500
O921        O  0.98286521  0.43013345  0.88860661    -0.87100
O922        O  0.97620523  0.43261055  0.11324863    -0.87300
O923        O  0.53753220  0.37534066  0.99978976    -0.89000
O924        O  0.91219844  0.38625815  0.00026407    -0.87700
O925        O  0.87054915  0.43914185  0.99406811    -0.87300
O926        O  0.58772764  0.41961690  0.00307866    -0.88700
O927        O  0.97489857  0.38195388  0.06698246    -0.87100
O928        O  0.97747833  0.38012469  0.93457785    -0.86700
Zr929      Zr  0.97702149  0.41313885  0.00038112     2.84300
O930        O  0.94017838  0.45780021  0.03871411    -1.08700
O931        O  0.52006908  0.44989702  0.96067972    -1.09400
C932        C  0.98034735  0.39311481  0.89830690     1.06000
C933        C  0.97571496  0.39549951  0.10333038     1.05900
C934        C  0.57370614  0.38397379  0.00158584     1.08900
C935        C  0.87840933  0.40147640  0.99646293     1.06700
H936        H  0.53230347  0.43332485  0.05799518     0.32300
O937        O  0.51817047  0.45101229  0.04064336    -1.29700
H938        H  0.92596277  0.44227239  0.94106779     0.31900
O939        O  0.94262253  0.45705206  0.95880722    -1.31300
O940        O  0.99245745  0.05926061  0.11172795    -0.87100
O941        O  0.99223338  0.06231613  0.88734848    -0.88600
O942        O  0.58989070  0.48349487  0.06825442    -0.87200
O943        O  0.87396474  0.50786372  0.06190194    -0.87200
O944        O  0.88057694  0.51023527  0.92960116    -0.86900
O945        O  0.59346272  0.48415569  0.93591813    -0.86800
O946        O  0.55968053  0.10196058  0.00047406    -0.87100
O947        O  0.93243349  0.11394524  0.99819343    -0.86600
O948        O  0.60071780  0.04838627  0.00317470    -0.87700
O949        O  0.88197052  0.06976272  0.99823432    -0.86800
O950        O  0.54182874  0.49111810  0.11433168    -0.87200
O951        O  0.54711610  0.48992813  0.88760847    -0.86900
O952        O  0.92798356  0.50144466  0.88318630    -0.86600
O953        O  0.91947147  0.50069962  0.11089383    -0.87000
O954        O  0.99709496  0.10883932  0.06517006    -0.87300
O955        O  0.99953432  0.11043830  0.93579862    -0.88600
Zr956      Zr  0.98119151  0.49546109  0.07911417     2.83100
Zr957      Zr  0.98608769  0.49430941  0.92139785     2.83500
Zr958      Zr  0.56149752  0.48699283  0.00150396     2.84100
Zr959      Zr  0.90668162  0.50195439  0.99728609     2.83400
Zr960      Zr  0.99377230  0.07683939  0.99974699     2.84200
O961        O  0.95133708  0.04050625  0.95904471    -1.09200
O962        O  0.52776372  0.03214918  0.03961904    -1.08700
C963        C  0.99622598  0.09614454  0.10154035     1.06000
C964        C  0.99736778  0.09866046  0.89912355     1.08600
C965        C  0.57705143  0.48624981  0.10436869     1.06100
C966        C  0.88482058  0.50581983  0.09886023     1.06500
C967        C  0.89317957  0.50869502  0.89324246     1.06100
C968        C  0.58220818  0.48660293  0.89904992     1.05600
C969        C  0.59366905  0.08607591  0.00236653     1.06100
C970        C  0.89609416  0.10546880  0.99811017     1.05600
H971        H  0.54599707  0.04707951  0.94363861     0.32200
O972        O  0.52848533  0.03219772  0.96006103    -1.30300
H973        H  0.93604212  0.05750059  0.05512469     0.32300
O974        O  0.95055919  0.03974947  0.03822634    -1.31700
N975        N  0.73658247  0.30716413  0.01400371    -0.37200
N976        N  0.79476366  0.24378430  0.00889728    -0.57800
N977        N  0.73319751  0.18437432  0.00572888    -0.37200
N978        N  0.67574297  0.24862503  0.00508712    -0.57800
C979        C  0.76873814  0.32952707  0.01017907     0.26400
C980        C  0.70584383  0.33147724  0.00896792     0.26400
C981        C  0.76431701  0.16234811  0.99551895     0.26300
C982        C  0.70148001  0.16502498  0.99214853     0.26300
C983        C  0.81608987  0.27489239  0.02234642     0.35000
C984        C  0.81432605  0.21006338  0.01806662     0.35000
C985        C  0.65550178  0.28031500  0.01861833     0.35000
C986        C  0.65403071  0.21611139  0.01232444     0.35000
C987        C  0.75796215  0.36887438  0.00354560    -0.22500
C988        C  0.71865898  0.36987936  0.00194512    -0.22500
C989        C  0.75219434  0.12854633  0.97504869    -0.22500
C990        C  0.71269629  0.13042242  0.97259312    -0.22500
C991        C  0.84940196  0.26073456  0.03996651    -0.23600
C992        C  0.84785022  0.21986624  0.03804911    -0.23600
C993        C  0.62138841  0.26766689  0.03540308    -0.23600
C994        C  0.62020381  0.22706558  0.03089332    -0.23600
C995        C  0.80695493  0.31583362  0.01683903    -0.18900
C996        C  0.66673720  0.32056399  0.01397908    -0.18900
C997        C  0.66292334  0.17713354  0.99944297    -0.18900
C998        C  0.80294991  0.17092735  0.00650636    -0.18900
H999        H  0.77577669  0.39508498  0.00186497     0.14000
H1000       H  0.70168606  0.39645971  0.99750185     0.14000
H1001       H  0.76994187  0.10497887  0.96296810     0.14000
H1002       H  0.69444619  0.10859352  0.95818381     0.14000
H1003       H  0.87227536  0.27774355  0.05364141     0.12300
H1004       H  0.86898592  0.19984997  0.05045832     0.12300
H1005       H  0.59960764  0.28569708  0.04961363     0.12300
H1006       H  0.59720323  0.20774091  0.04049341     0.12300
H1007       H  0.73571057  0.27794024  0.02394517     0.25500
H1008       H  0.73335198  0.20903938  0.02470127     0.25500
C1009       C  0.54979786  0.24950605  0.27536079     0.85900
C1010       C  0.54642789  0.21323623  0.24734404    -0.54400
C1011       C  0.01277536  0.21133984  0.22877930     0.08800
C1012       C  0.98437157  0.24499637  0.23926151     0.19700
C1013       C  0.54087576  0.28544159  0.24854147    -0.55100
C1014       C  0.00675908  0.28330080  0.22960181     0.08900
C1015       C  0.01600392  0.24575162  0.30368582    -0.54600
C1016       C  0.98145854  0.24484971  0.28520731     0.09500
H1017       H  0.56905082  0.19196909  0.24141352     0.14000
H1018       H  0.95623739  0.24246086  0.22402324    -0.00300
H1019       H  0.56109043  0.30965933  0.24452261     0.14300
H1020       H  0.01898269  0.24442505  0.33598234     0.14100
C1021       C  0.69649761  0.49423455  0.22241491     0.85900
C1022       C  0.70859700  0.45713122  0.24573040    -0.54400
C1023       C  0.74229368  0.46109800  0.26630482     0.08800
C1024       C  0.76178190  0.50201506  0.25999283     0.19700
C1025       C  0.69946419  0.02599348  0.25299338    -0.55100
C1026       C  0.73380044  0.03153573  0.27191825     0.08900
C1027       C  0.73016668  0.50396251  0.19534821    -0.54600
C1028       C  0.76431741  0.50772172  0.21423394     0.09500
H1029       H  0.69021879  0.43114284  0.24816717     0.14000
H1030       H  0.78959144  0.50551249  0.27578588    -0.00300
H1031       H  0.67511497  0.04462908  0.26003881     0.14300
H1032       H  0.72732621  0.50644531  0.16310797     0.14100
C1033       C  0.54712047  0.25136345  0.72166288     0.85900
C1034       C  0.53339231  0.28832874  0.74499030    -0.54400
C1035       C  0.00269367  0.28361426  0.76680945     0.08800
C1036       C  0.98426973  0.24234250  0.76040420     0.19700
C1037       C  0.54931721  0.21835342  0.75374405    -0.55100
C1038       C  0.01603394  0.21345603  0.77341940     0.08900
C1039       C  0.01473812  0.24145953  0.69543697    -0.54600
C1040       C  0.98101369  0.23653529  0.71478149     0.09500
H1041       H  0.55015324  0.31552978  0.74716908     0.14000
H1042       H  0.95680670  0.23849705  0.77657973    -0.00300
H1043       H  0.57445470  0.20095783  0.76090505     0.14300
H1044       H  0.01709172  0.23934169  0.66313301     0.14100
C1045       C  0.70215559  0.49792541  0.77863016     0.85900
C1046       C  0.70040727  0.03284963  0.74759218    -0.54400
C1047       C  0.73423665  0.03657477  0.72757634     0.08800
C1048       C  0.76502139  0.50629098  0.73690423     0.19700
C1049       C  0.71372858  0.46048923  0.75489659    -0.55100
C1050       C  0.74597817  0.46503844  0.73202879     0.08900
C1051       C  0.73738957  0.50890183  0.80320237    -0.54600
C1052       C  0.77032703  0.51318924  0.78216965     0.09500
H1053       H  0.67652670  0.05245139  0.74140445     0.14000
H1054       H  0.79166978  0.51000162  0.71925583    -0.00300
H1055       H  0.69589864  0.43398849  0.75363118     0.14300
H1056       H  0.73633780  0.51204593  0.83547782     0.14100
C1057       C  0.59992046  0.50937564  0.17065247    -0.14000
C1058       C  0.60462203  0.48444262  0.13727032     0.08200
C1059       C  0.63582804  0.45843790  0.13556720    -0.14000
C1060       C  0.66326952  0.45920565  0.16577629    -0.14000
C1061       C  0.66102024  0.48740572  0.19711459     0.08200
C1062       C  0.62798264  0.51109549  0.20027126    -0.14000
H1063       H  0.57542632  0.52908217  0.17281246     0.12200
H1064       H  0.63931873  0.43813056  0.11058366     0.12200
H1065       H  0.68795329  0.43981216  0.16311080     0.12200
H1066       H  0.62401315  0.53212969  0.22432340     0.12200
C1067       C  0.82642040  0.53762846  0.12775040    -0.14000
C1068       C  0.85575669  0.50931665  0.13041773     0.08200
C1069       C  0.85786722  0.48463049  0.16419761    -0.14000
C1070       C  0.82970034  0.48649282  0.19375144    -0.14000
C1071       C  0.79930442  0.51338802  0.19013654     0.08200
C1072       C  0.79862308  0.53990840  0.15759433    -0.14000
H1073       H  0.82477704  0.55757119  0.10244076     0.12200
H1074       H  0.88046528  0.46267873  0.16684686     0.12200
H1075       H  0.83031340  0.46524044  0.21799090     0.12200
H1076       H  0.77533504  0.56097536  0.15423096     0.12200
C1077       C  0.50669565  0.35232266  0.20130260    -0.14000
C1078       C  0.99435669  0.31287681  0.19918781     0.08200
C1079       C  0.97228767  0.30128788  0.16577337    -0.14000
C1080       C  0.96523315  0.32808530  0.13459232    -0.14000
C1081       C  0.97926749  0.36719547  0.13686116     0.08200
C1082       C  0.49923038  0.37925330  0.17079141    -0.14000
H1083       H  0.52294610  0.36251959  0.22694129     0.12200
H1084       H  0.96172545  0.27115668  0.16271359     0.12200
H1085       H  0.94936469  0.31812271  0.10857027     0.12200
H1086       H  0.51063114  0.40916880  0.17364628     0.12200
C1087       C  0.99926414  0.11376406  0.17443734    -0.14000
C1088       C  0.99968882  0.12596361  0.13422428     0.08200
C1089       C  0.49737483  0.16674594  0.12543570    -0.14000
C1090       C  0.50179057  0.19447236  0.15630063    -0.14000
C1091       C  0.00634860  0.18221021  0.19657143     0.08200
C1092       C  0.00274057  0.14167197  0.20531614    -0.14000
H1093       H  0.99650418  0.08259061  0.18214585     0.12200
H1094       H  0.49491853  0.17746525  0.09508489     0.12200
H1095       H  0.50409606  0.22568056  0.14899805     0.12200
H1096       H  0.00284956  0.13166031  0.23602308     0.12200
C1097       C  0.63720645  0.35330664  0.01596687    -0.17100
C1098       C  0.60124436  0.35021590  0.00103735    -0.32200
H1099       H  0.64579360  0.38160022  0.02906705     0.12000
H1100       H  0.59169884  0.32246906  0.98751813     0.12500
C1101       C  0.84609521  0.37344581  0.99285767    -0.17100
C1102       C  0.83910873  0.34535275  0.02045501    -0.32200
H1103       H  0.82773346  0.37615780  0.96682329     0.12000
H1104       H  0.85855172  0.34306039  0.04569261     0.12500
C1105       C  0.86881800  0.13977867  0.99729425    -0.17100
C1106       C  0.83122283  0.13671838  0.00700509    -0.32200
H1107       H  0.88028320  0.16839396  0.98823566     0.12000
H1108       H  0.82014500  0.10749552  0.01473500     0.12500
C1109       C  0.62822062  0.11191055  0.00495451    -0.17100
C1110       C  0.62927725  0.14989579  0.99262095    -0.32200
H1111       H  0.65388378  0.09885589  0.01777988     0.12000
H1112       H  0.60319390  0.16286946  0.98055602     0.12500
C1113       C  0.86978146  0.49805816  0.82283452    -0.14000
C1114       C  0.86559700  0.51608819  0.86068281     0.08200
C1115       C  0.83406084  0.54081355  0.86770736    -0.14000
C1116       C  0.80538205  0.54433181  0.83909641    -0.14000
C1117       C  0.80666467  0.52160705  0.80366595     0.08200
C1118       C  0.84021450  0.50054883  0.79449470    -0.14000
H1119       H  0.89452714  0.47972829  0.81628240     0.12200
H1120       H  0.88541306  0.05596836  0.82945115     0.12200
H1121       H  0.83217004  0.05533284  0.78034136     0.12200
H1122       H  0.84218828  0.48328189  0.76718026     0.12200
C1123       C  0.64549630  0.46535507  0.87060287    -0.14000
C1124       C  0.61135864  0.48689994  0.86698407     0.08200
C1125       C  0.60492503  0.50910442  0.83203793    -0.14000
C1126       C  0.63300253  0.51174393  0.80238472    -0.14000
C1127       C  0.66802150  0.49143864  0.80653253     0.08200
C1128       C  0.67289905  0.46665409  0.84022975    -0.14000
H1129       H  0.65094870  0.44742938  0.89682868     0.12200
H1130       H  0.57854341  0.52565561  0.82822044     0.12200
H1131       H  0.62700206  0.53008488  0.77675746     0.12200
H1132       H  0.69911886  0.44984202  0.84409296     0.12200
C1133       C  0.97290694  0.13384620  0.83900900    -0.14000
C1134       C  0.00155019  0.12900488  0.86799322     0.08200
C1135       C  0.53246308  0.15390134  0.86843498    -0.14000
C1136       C  0.53762182  0.18126602  0.83753113    -0.14000
C1137       C  0.01107993  0.18448653  0.80612796     0.08200
C1138       C  0.97739485  0.16184772  0.80860396    -0.14000
H1139       H  0.94704795  0.11603827  0.84004086     0.12200
H1140       H  0.55287179  0.15313101  0.89284579     0.12200
H1141       H  0.56167423  0.20163726  0.83872787     0.12200
H1142       H  0.95496759  0.16513380  0.78646633     0.12200
C1143       C  0.47796464  0.32216093  0.87025044    -0.14000
C1144       C  0.98196653  0.36427399  0.86449700     0.08200
C1145       C  0.98880164  0.37853552  0.82560045    -0.14000
C1146       C  0.99370700  0.35235196  0.79364689    -0.14000
C1147       C  0.99156193  0.31117583  0.79947509     0.08200
C1148       C  0.48287071  0.29556950  0.83809677    -0.14000
H1149       H  0.47522818  0.31031883  0.90013234     0.12200
H1150       H  0.99154262  0.41012578  0.81977695     0.12200
H1151       H  0.00013029  0.36428581  0.76441961     0.12200
H1152       H  0.48412798  0.26389417  0.84404767     0.12200
C1153       C  0.88319291  0.25439299  0.67067342    -0.14000
C1154       C  0.88622643  0.23340216  0.63432043     0.08200
C1155       C  0.91755869  0.20795161  0.62837273    -0.14000
C1156       C  0.94662313  0.20573991  0.65693417    -0.14000
C1157       C  0.94542121  0.22969616  0.69155211     0.08200
C1158       C  0.91272936  0.25271603  0.69903579    -0.14000
H1159       H  0.85903104  0.27387754  0.67614055     0.12200
H1160       H  0.92003951  0.19053123  0.60117595     0.12200
H1161       H  0.97123745  0.18703594  0.65085198     0.12200
H1162       H  0.91125445  0.27157673  0.72531759     0.12200
C1163       C  0.60602152  0.28671706  0.63272841    -0.14000
C1164       C  0.63690583  0.26010084  0.63299734     0.08200
C1165       C  0.64126958  0.23402329  0.66529009    -0.14000
C1166       C  0.61413784  0.23278649  0.69573979    -0.17000
C1167       C  0.58194884  0.25806494  0.69495662     0.08200
C1168       C  0.57924877  0.28622620  0.66379683    -0.14000
H1169       H  0.60249141  0.30763082  0.60844834     0.12200
H1170       H  0.66510076  0.21335495  0.66622243     0.12200
H1171       H  0.61823931  0.21066659  0.71852331     0.12200
H1172       H  0.55491136  0.30618049  0.66221018     0.12200
C1173       C  0.76073178  0.12944704  0.67164511    -0.14000
C1174       C  0.74725033  0.12039425  0.63301137     0.08200
C1175       C  0.73010540  0.08313420  0.62575901    -0.14000
C1176       C  0.72585134  0.05586335  0.65677446    -0.14000
C1177       C  0.73931681  0.06517110  0.69511763     0.08200
C1178       C  0.75700735  0.10185076  0.70244294    -0.14000
H1179       H  0.77433330  0.15779373  0.67802574     0.12200
H1180       H  0.71931094  0.07539966  0.59638019     0.12200
H1181       H  0.71188575  0.02757604  0.65097277     0.12200
H1182       H  0.76752851  0.10922040  0.73202653     0.12200
C1183       C  0.75830394  0.36818032  0.67461196    -0.14000
C1184       C  0.76526763  0.38142583  0.63532807     0.08200
C1185       C  0.76854361  0.42270472  0.62887652    -0.14000
C1186       C  0.76416980  0.44983642  0.66069109    -0.14000
C1187       C  0.75583068  0.43634363  0.69948682     0.08200
C1188       C  0.75337700  0.39522228  0.70607216    -0.14000
H1189       H  0.75556489  0.33672327  0.68109874     0.12200
H1190       H  0.77378708  0.43408321  0.59918708     0.12200
H1191       H  0.76578769  0.48143895  0.65457721     0.12200
H1192       H  0.74705772  0.38395989  0.73558941     0.12200
C1193       C  0.87923572  0.10622651  0.49719181    -0.17100
C1194       C  0.91652768  0.10969898  0.50813945    -0.32200
H1195       H  0.86849417  0.07794217  0.48600870     0.12000
H1196       H  0.92680259  0.13859924  0.51828797     0.12500
C1197       C  0.61955562  0.13316624  0.50293697    -0.17100
C1198       C  0.61541442  0.10130907  0.47889141    -0.32200
H1199       H  0.59724313  0.14048796  0.52429263     0.12000
H1200       H  0.63760236  0.09532262  0.45699349     0.12500
C1201       C  0.64233843  0.39268346  0.49807819    -0.17100
C1202       C  0.60831144  0.39220110  0.47826411    -0.32200
H1203       H  0.64990147  0.41793311  0.51684783     0.12000
H1204       H  0.60151593  0.36584166  0.46079207     0.12500
C1205       C  0.90382396  0.40618044  0.49242445    -0.17100
C1206       C  0.90313257  0.36797616  0.50446630    -0.32200
H1207       H  0.87740377  0.41932352  0.48141136     0.12000
H1208       H  0.92901145  0.35486466  0.51673540     0.12500
C1209       C  0.64243196  0.22796946  0.33235298    -0.14000
C1210       C  0.63988918  0.25675608  0.36275487     0.08200
C1211       C  0.61174380  0.28620419  0.36083326    -0.14000
C1212       C  0.58540578  0.28586786  0.32954802    -0.14000
C1213       C  0.58540203  0.25477302  0.30091991     0.08200
C1214       C  0.61523851  0.22667945  0.30183629    -0.14000
H1215       H  0.66463252  0.20541209  0.33315836     0.12200
H1216       H  0.61003522  0.30922460  0.38356652     0.12200
H1217       H  0.56300558  0.30821594  0.32938035     0.12200
H1218       H  0.61719104  0.20272593  0.28038144     0.12200
C1219       C  0.91876419  0.26746765  0.37315390    -0.14000
C1220       C  0.88714558  0.24296867  0.36605458     0.08200
C1221       C  0.88369523  0.22301486  0.32908352    -0.14000
C1222       C  0.91344064  0.22505875  0.30098917    -0.14000
C1223       C  0.94623225  0.24770122  0.30954715     0.08200
C1224       C  0.94746368  0.27054463  0.34490424    -0.14000
H1225       H  0.92123496  0.28446851  0.40064180     0.12200
H1226       H  0.85883079  0.20474598  0.32268125     0.12200
H1227       H  0.91164980  0.20764619  0.27374324     0.12200
H1228       H  0.97153970  0.28986289  0.35153089     0.12200
C1229       C  0.77126593  0.41763303  0.36664624    -0.14000
C1230       C  0.76243455  0.37705776  0.36129868     0.08200
C1231       C  0.75019359  0.36406517  0.32327871    -0.14000
C1232       C  0.74573621  0.39101607  0.29193975    -0.14000
C1233       C  0.75343998  0.43175462  0.29756463     0.08200
C1234       C  0.76715234  0.44462320  0.33499596    -0.14000
H1235       H  0.78089683  0.42862337  0.39541302     0.12200
H1236       H  0.74300103  0.33309572  0.31786942     0.12200
H1237       H  0.73538590  0.38005276  0.26342204     0.12200
H1238       H  0.77312213  0.47582214  0.34040984     0.12200
C1239       C  0.77020197  0.08718606  0.30426700    -0.14000
C1240       C  0.73897667  0.06092047  0.30443371     0.08200
C1241       C  0.71273028  0.06238031  0.33610792    -0.14000
C1242       C  0.71773954  0.08962069  0.36734469    -0.14000
C1243       C  0.74845287  0.11653373  0.36671307     0.08200
C1244       C  0.77454618  0.11532708  0.33490054    -0.14000
H1245       H  0.79071038  0.08642095  0.28006590     0.12200
H1246       H  0.68863385  0.04206045  0.33688546     0.12200
H1247       H  0.69716837  0.09033754  0.39150710     0.12200
H1248       H  0.79841324  0.13594152  0.33399589     0.12200
O1249       O  0.75658279  0.68606981  0.38683213    -0.87100
O1250       O  0.75698998  0.68620310  0.61123436    -0.87300
O1251       O  0.81608934  0.63294823  0.49582426    -0.89000
O1252       O  0.68874247  0.64368474  0.50018173    -0.87700
O1253       O  0.64666974  0.69646117  0.50234777    -0.87300
O1254       O  0.86621355  0.67740990  0.49807374    -0.88700
O1255       O  0.75192044  0.63725882  0.56337879    -0.87100
O1256       O  0.75093426  0.63730508  0.43409515    -0.86700
Zr1257     Zr  0.75490673  0.66981780  0.49893048     2.84300
O1258       O  0.71988035  0.71399687  0.53903030    -1.08700
O1259       O  0.79718594  0.70684131  0.45964309    -1.09400
C1260       C  0.75234756  0.64940462  0.39759104     1.06000
C1261       C  0.75318014  0.64954615  0.59993033     1.05900
C1262       C  0.85231231  0.64168210  0.49636561     1.08900
C1263       C  0.65460070  0.65892709  0.50198654     1.06700
H1264       H  0.81172065  0.68851216  0.55603508     0.32300
O1265       O  0.79716790  0.70648380  0.53944187    -1.29700
H1266       H  0.70147597  0.69811878  0.44258195     0.31900
O1267       O  0.71872389  0.71325258  0.45940426    -1.31300
O1268       O  0.76658956  0.81498555  0.61237263    -0.87100
O1269       O  0.76505022  0.81440850  0.38777872    -0.88600
O1270       O  0.86870741  0.73870676  0.56630495    -0.87200
O1271       O  0.65483486  0.76045064  0.56635628    -0.87200
O1272       O  0.65400090  0.76051332  0.43252002    -0.86900
O1273       O  0.86786545  0.74547126  0.43392859    -0.86800
O1274       O  0.83400407  0.85919952  0.50171198    -0.87100
O1275       O  0.70426658  0.86774120  0.50173915    -0.86600
O1276       O  0.87528390  0.80581032  0.50536618    -0.87700
O1277       O  0.65451098  0.82282312  0.49833362    -0.86800
O1278       O  0.82235344  0.74563818  0.61418755    -0.87200
O1279       O  0.82085420  0.74550605  0.38581969    -0.86900
O1280       O  0.70112964  0.75277420  0.38547226    -0.86600
O1281       O  0.70221738  0.75338975  0.61347907    -0.87000
O1282       O  0.76976316  0.86504668  0.56610639    -0.87300
O1283       O  0.76962249  0.86475476  0.43409070    -0.88600
Zr1284     Zr  0.76216870  0.75080487  0.57880883     2.83100
Zr1285     Zr  0.76108527  0.75037344  0.42075695     2.83500
Zr1286     Zr  0.83858781  0.74432789  0.50022439     2.84100
Zr1287     Zr  0.68387378  0.75758626  0.49944209     2.83400
Zr1288     Zr  0.76738003  0.83289037  0.50011969     2.84200
O1289       O  0.72563506  0.79502435  0.45978725    -1.09200
O1290       O  0.80341998  0.78876753  0.53979714    -1.08700
C1291       C  0.76859793  0.85207409  0.60247819     1.06000
C1292       C  0.76802091  0.85150274  0.39767021     1.08600
C1293       C  0.85723479  0.74048537  0.60303996     1.06100
C1294       C  0.66707582  0.75730621  0.60279288     1.06500
C1295       C  0.66604984  0.75716463  0.39603362     1.06100
C1296       C  0.85596535  0.74548528  0.39727929     1.05600
C1297       C  0.86802256  0.84351656  0.50453349     1.06100
C1298       C  0.66803126  0.85849519  0.50033863     1.05600
H1299       H  0.81983857  0.80340617  0.44384052     0.32200
O1300       O  0.80276935  0.78819188  0.46056243    -1.30300
H1301       H  0.71134166  0.81220018  0.55695001     0.32300
O1302       O  0.72596398  0.79474140  0.53976956    -1.31700
N1303       N  0.51479526  0.56402854  0.49657574    -0.37200
N1304       N  0.95345591  0.00431601  0.49833959    -0.57800
N1305       N  0.50880321  0.94049524  0.49318191    -0.37200
N1306       N  0.56986478  0.99926311  0.48541589    -0.57800
C1307       C  0.98409756  0.58748917  0.49522080     0.26400
C1308       C  0.54588711  0.58567599  0.48587456     0.26400
C1309       C  0.97673964  0.91907704  0.48590419     0.26300
C1310       C  0.53813694  0.91646299  0.48147850     0.26300
C1311       C  0.93417874  0.53725992  0.51126513     0.35000
C1312       C  0.93185914  0.97236409  0.50803471     0.35000
C1313       C  0.59471521  0.53088252  0.48147638     0.35000
C1314       C  0.59185700  0.96597476  0.48284739     0.35000
C1315       C  0.99610078  0.62508222  0.48356014    -0.22500
C1316       C  0.53442376  0.62417275  0.47672284    -0.22500
C1317       C  0.98534704  0.88186642  0.47017192    -0.22500
C1318       C  0.52298168  0.88038901  0.46842975    -0.22500
C1319       C  0.90109257  0.52591664  0.53092609    -0.23600
C1320       C  0.89972675  0.98434640  0.52907866    -0.23600
C1321       C  0.63164938  0.51770429  0.47425752    -0.23600
C1322       C  0.62985269  0.97689016  0.47745947    -0.23600
C1323       C  0.94550866  0.57722732  0.50428425    -0.18900
C1324       C  0.58431819  0.57178035  0.48336910    -0.18900
C1325       C  0.57811959  0.92592219  0.48284512    -0.18900
C1326       C  0.93917726  0.93278757  0.49583100    -0.18900
H1327       H  0.97866056  0.65122072  0.47846229     0.14000
H1328       H  0.55217917  0.64851493  0.46654868     0.14000
H1329       H  0.96551277  0.85869102  0.46127687     0.14000
H1330       H  0.53820670  0.85473783  0.45701147     0.14000
H1331       H  0.88054498  0.54493520  0.54583942     0.12300
H1332       H  0.87720240  0.96563617  0.54085655     0.12300
H1333       H  0.65730687  0.53517272  0.46989271     0.12300
H1334       H  0.65429220  0.95825921  0.47100169     0.12300
H1335       H  0.51528877  0.53547033  0.50833828     0.25500
H1336       H  0.51161951  0.96763192  0.50794541     0.25500
O1337       O  0.98412227  0.93321402  0.88490421    -0.87100
O1338       O  0.97952739  0.93199709  0.11072982    -0.87300
O1339       O  0.54110914  0.87681867  0.99604271    -0.89000
O1340       O  0.91492118  0.88644563  0.99970234    -0.87700
O1341       O  0.87285457  0.93916438  0.99605455    -0.87300
O1342       O  0.59096803  0.92132027  0.00100270    -0.88700
O1343       O  0.97863066  0.88181028  0.06402927    -0.87100
O1344       O  0.97915004  0.88302480  0.93095656    -0.86700
Zr1345     Zr  0.97970663  0.91400608  0.99770055     2.84300
O1346       O  0.94378425  0.95810299  0.03736061    -1.08700
O1347       O  0.52160056  0.95140872  0.95869668    -1.09400
C1348       C  0.98183030  0.89609410  0.89468617     1.06000
C1349       C  0.97890030  0.89490795  0.10059454     1.05900
C1350       C  0.57720488  0.88569137  0.99847443     1.08900
C1351       C  0.88087044  0.90144176  0.99772852     1.06700
H1352       H  0.53524814  0.93294764  0.05596480     0.32300
O1353       O  0.52081876  0.95069346  0.03896717    -1.29700
H1354       H  0.92781559  0.94381860  0.93999630     0.31900
O1355       O  0.94471987  0.95863480  0.95742228    -1.31300
O1356       O  0.98558290  0.55885590  0.11413089    -0.87100
O1357       O  0.99044515  0.55810581  0.88771545    -0.88600
O1358       O  0.59231526  0.98323833  0.06696380    -0.87200
O1359       O  0.87782308  0.00532539  0.06263206    -0.87200
O1360       O  0.88048878  0.00579858  0.93097013    -0.86900
O1361       O  0.59385803  0.98428171  0.93406469    -0.86800
O1362       O  0.55849746  0.60169357  0.00238916    -0.87100
O1363       O  0.93079685  0.61306401  0.99480932    -0.86600
O1364       O  0.59937827  0.54800991  0.00547113    -0.87700
O1365       O  0.88015788  0.56910272  0.99579646    -0.86800
O1366       O  0.54460070  0.99019574  0.11346699    -0.87200
O1367       O  0.54694308  0.99126982  0.88639097    -0.86900
O1368       O  0.92757195  0.00533142  0.88321763    -0.86600
O1369       O  0.92416017  0.00051979  0.11105055    -0.87000
O1370       O  0.99271643  0.60737009  0.06665150    -0.87300
O1371       O  0.99717237  0.60725153  0.93502815    -0.88600
Zr1372     Zr  0.98521530  0.99543422  0.07751603     2.83100
Zr1373     Zr  0.98687981  0.99715349  0.91924488     2.83500
Zr1374     Zr  0.56318918  0.98767164  0.00008703     2.84100
Zr1375     Zr  0.90902587  0.00233705  0.99748666     2.83400
Zr1376     Zr  0.99191822  0.57593024  0.00045332     2.84200
O1377       O  0.95047806  0.53868285  0.95966723    -1.09200
O1378       O  0.52586311  0.53181805  0.04063814    -1.08700
C1379       C  0.99006276  0.59539882  0.10325540     1.06000
C1380       C  0.99504379  0.59477407  0.89848348     1.08600
C1381       C  0.57982365  0.98551387  0.10331372     1.06100
C1382       C  0.88917951  0.00423529  0.09942564     1.06500
C1383       C  0.89244289  0.00662854  0.89446700     1.06100
C1384       C  0.58197906  0.98713655  0.89749062     1.05600
C1385       C  0.59241795  0.58582369  0.00489185     1.06100
C1386       C  0.89444811  0.60461368  0.99427767     1.05600
H1387       H  0.54516082  0.54607961  0.94453662     0.32200
O1388       O  0.52750850  0.53136518  0.96088431    -1.30300
H1389       H  0.93295828  0.55759403  0.05455118     0.32300
O1390       O  0.94776987  0.53949361  0.03834908    -1.31700
N1391       N  0.73845158  0.80736632  0.01681490    -0.37200
N1392       N  0.79510970  0.74342964  0.00943557    -0.57800
N1393       N  0.73243360  0.68422404  0.00563292    -0.37200
N1394       N  0.67631500  0.74899404  0.00602441    -0.57800
C1395       C  0.77086784  0.82953103  0.01372868     0.26400
C1396       C  0.70805321  0.83209882  0.01188686     0.26400
C1397       C  0.76314577  0.66142608  0.99582720     0.26300
C1398       C  0.70026222  0.66444604  0.99389146     0.26300
C1399       C  0.81790592  0.77390718  0.02190802     0.35000
C1400       C  0.81481543  0.70918128  0.01598511     0.35000
C1401       C  0.65633276  0.78134165  0.01848603     0.35000
C1402       C  0.65321656  0.71709118  0.01185540     0.35000
C1403       C  0.76056426  0.86916607  0.00833051    -0.22500
C1404       C  0.72132941  0.87059419  0.00628043    -0.22500
C1405       C  0.75023799  0.62654565  0.97778016    -0.22500
C1406       C  0.71077907  0.62864919  0.97617588    -0.22500
C1407       C  0.85226150  0.75883624  0.03610457    -0.23600
C1408       C  0.84994741  0.71811275  0.03325592    -0.23600
C1409       C  0.62094430  0.76971246  0.03302395    -0.23600
C1410       C  0.61874645  0.72921696  0.02828115    -0.23600
C1411       C  0.80909049  0.81521461  0.01867915    -0.18900
C1412       C  0.66870781  0.82143338  0.01492428    -0.18900
C1413       C  0.66186541  0.67734918  0.00075861    -0.18900
C1414       C  0.80225727  0.67024422  0.00476401    -0.18900
H1415       H  0.77870757  0.89516911  0.00721895     0.14000
H1416       H  0.70468929  0.89744191  0.00209266     0.14000
H1417       H  0.76742613  0.60209171  0.96662144     0.14000
H1418       H  0.69213844  0.60622929  0.96332175     0.14000
H1419       H  0.87641828  0.77517203  0.04808242     0.12300
H1420       H  0.87176372  0.69763324  0.04339207     0.12300
H1421       H  0.59894812  0.78837069  0.04601387     0.12300
H1422       H  0.59468773  0.71072574  0.03662968     0.12300
H1423       H  0.73701363  0.77780681  0.02558711     0.25500
H1424       H  0.73328043  0.70988893  0.02311192     0.25500
C1425       C  0.54734126  0.75099827  0.27571380     0.85900
C1426       C  0.54382609  0.71472802  0.24742052    -0.54400
C1427       C  0.00984139  0.71170283  0.22881695     0.08800
C1428       C  0.98145883  0.74530476  0.23899143     0.19700
C1429       C  0.53812607  0.78686253  0.24896759    -0.55100
C1430       C  0.00398449  0.78357939  0.22958299     0.08900
C1431       C  0.01249217  0.74606722  0.30381742    -0.54600
C1432       C  0.97821758  0.74504154  0.28485140     0.09500
H1433       H  0.56659114  0.69380823  0.24090919     0.14000
H1434       H  0.95355508  0.74306762  0.22314257    -0.00300
H1435       H  0.55806088  0.81127531  0.24447500     0.14300
H1436       H  0.01487671  0.74539663  0.33620380     0.14100
C1437       C  0.69937902  0.99107162  0.22272531     0.85900
C1438       C  0.71268874  0.95504823  0.24731924    -0.54400
C1439       C  0.74666317  0.96093475  0.26717201     0.08800
C1440       C  0.76508375  0.00191275  0.25914534     0.19700
C1441       C  0.69673082  0.52814211  0.25377945    -0.55100
C1442       C  0.73101692  0.53212205  0.27315757     0.08900
C1443       C  0.73267224  0.00022176  0.19499539    -0.54600
C1444       C  0.76702376  0.00571159  0.21322415     0.09500
H1445       H  0.69529531  0.92849671  0.25110636     0.14000
H1446       H  0.79291551  0.00641318  0.27466103    -0.00300
H1447       H  0.67277355  0.54741446  0.26071379     0.14300
H1448       H  0.72932293  0.00092169  0.16273555     0.14100
C1449       C  0.54874377  0.74771325  0.72275873     0.85900
C1450       C  0.53795783  0.78445451  0.74778621    -0.54400
C1451       C  0.00620977  0.78057379  0.76860532     0.08800
C1452       C  0.98488749  0.74090195  0.76110464     0.19700
C1453       C  0.54882078  0.71315228  0.75301476    -0.55100
C1454       C  0.01459032  0.70900222  0.77227043     0.08900
C1455       C  0.01483227  0.74038680  0.69588215    -0.54600
C1456       C  0.98093970  0.73719079  0.71533516     0.09500
H1457       H  0.55636787  0.81044511  0.75030191     0.14000
H1458       H  0.95738445  0.73811829  0.77742809    -0.00300
H1459       H  0.57272793  0.69344358  0.75870492     0.14300
H1460       H  0.01693839  0.73920304  0.66351601     0.14100
C1461       C  0.69985068  0.99753078  0.77694256     0.85900
C1462       C  0.69997968  0.53118764  0.74673971    -0.54400
C1463       C  0.73307518  0.53526877  0.72525024     0.08800
C1464       C  0.76441808  0.00505068  0.73807136     0.19700
C1465       C  0.71021900  0.96114562  0.75083703    -0.55100
C1466       C  0.74371622  0.96539131  0.72992894     0.08900
C1467       C  0.73464088  0.00447220  0.80342546    -0.54600
C1468       C  0.76841973  0.00713634  0.78376474     0.09500
H1469       H  0.67548116  0.55024188  0.74144104     0.14000
H1470       H  0.79188717  0.00827230  0.72172932    -0.00300
H1471       H  0.69172277  0.93528781  0.74770135     0.14300
H1472       H  0.73297601  0.00505289  0.83586128     0.14100
C1473       C  0.60344633  0.00841287  0.16963809    -0.14000
C1474       C  0.60764107  0.98327356  0.13634096     0.08200
C1475       C  0.63800865  0.95606893  0.13540987    -0.14000
C1476       C  0.66501199  0.95570999  0.16631162    -0.14000
C1477       C  0.66338729  0.98401755  0.19764014     0.08200
C1478       C  0.63101897  0.00896847  0.19988831    -0.14000
H1479       H  0.57963765  0.02905925  0.17137769     0.12200
H1480       H  0.64113012  0.93554388  0.11056010     0.12200
H1481       H  0.68909443  0.93547723  0.16405031     0.12200
H1482       H  0.62717205  0.03028171  0.22367799     0.12200
C1483       C  0.82705604  0.03075968  0.12375507    -0.14000
C1484       C  0.85998298  0.00809241  0.13082239     0.08200
C1485       C  0.86477716  0.98948769  0.16811043    -0.14000
C1486       C  0.83565208  0.99114103  0.19677111    -0.14000
C1487       C  0.80171300  0.01187507  0.18860655     0.08200
C1488       C  0.79856628  0.03320788  0.15260784    -0.14000
H1489       H  0.82315644  0.04628960  0.09573620     0.12200
H1490       H  0.89024329  0.97214568  0.17433719     0.12200
H1491       H  0.83868582  0.97428877  0.22409343     0.12200
H1492       H  0.77308672  0.05035140  0.14591365     0.12200
C1493       C  0.49987489  0.85295723  0.20246817    -0.14000
C1494       C  0.99260585  0.81219251  0.19794037     0.08200
C1495       C  0.97894474  0.79854165  0.16071952    -0.14000
C1496       C  0.97342515  0.82520643  0.12898201    -0.14000
C1497       C  0.98069035  0.86611343  0.13426295     0.08200
C1498       C  0.49436047  0.87922170  0.17096313    -0.14000
H1499       H  0.51079771  0.86438008  0.23057784     0.12200
H1500       H  0.97430488  0.76703096  0.15555898     0.12200
H1501       H  0.96429859  0.81374203  0.10021561     0.12200
H1502       H  0.50150152  0.91029034  0.17581913     0.12200
C1503       C  0.97738856  0.61926539  0.17335500    -0.14000
C1504       C  0.99322707  0.62580451  0.13526708     0.08200
C1505       C  0.51372077  0.66261328  0.12754695    -0.14000
C1506       C  0.51847405  0.69034469  0.15839169    -0.14000
C1507       C  0.00304061  0.68244561  0.19674100     0.08200
C1508       C  0.98202212  0.64764062  0.20382699    -0.14000
H1509       H  0.96146673  0.59228527  0.17954050     0.12200
H1510       H  0.52717165  0.66826938  0.09902350     0.12200
H1511       H  0.53526710  0.71697107  0.15316920     0.12200
H1512       H  0.96981562  0.64220953  0.23300909     0.12200
C1513       C  0.63959457  0.85452447  0.01579566    -0.17100
C1514       C  0.60493000  0.85226010  0.99780231    -0.32200
H1515       H  0.64731467  0.88210879  0.03090279     0.12000
H1516       H  0.59638913  0.82514200  0.98238443     0.12500
C1517       C  0.84838208  0.87317771  0.99488130    -0.17100
C1518       C  0.84176473  0.84445824  0.02210850    -0.32200
H1519       H  0.82933989  0.87632731  0.96943509     0.12000
H1520       H  0.86168088  0.84146800  0.04687206     0.12500
C1521       C  0.86709212  0.63854491  0.99170824    -0.17100
C1522       C  0.83028158  0.63596641  0.00423089    -0.32200
H1523       H  0.87790881  0.66655330  0.98020785     0.12000
H1524       H  0.81988003  0.60730626  0.01461559     0.12500
C1525       C  0.62676224  0.61207202  0.00840436    -0.17100
C1526       C  0.62809057  0.64980689  0.99492654    -0.32200
H1527       H  0.65204485  0.59948706  0.02245874     0.12000
H1528       H  0.60234039  0.66221159  0.98156772     0.12500
C1529       C  0.83502062  0.97679264  0.86525887    -0.14000
C1530       C  0.86327265  0.00609635  0.86323379     0.08200
C1531       C  0.86332683  0.03339110  0.83145614    -0.14000
C1532       C  0.83346657  0.03275098  0.80331747    -0.14000
C1533       C  0.80425141  0.00429779  0.80670113     0.08200
C1534       C  0.80618967  0.97546533  0.83690266    -0.14000
H1535       H  0.83515956  0.95499458  0.88905255     0.12200
H1536       H  0.83092070  0.55641038  0.89591472     0.12200
H1537       H  0.78057668  0.56238034  0.84618346     0.12200
H1538       H  0.78416352  0.95288257  0.83964504     0.12200
C1539       C  0.63944472  0.95907763  0.86306036    -0.14000
C1540       C  0.61026216  0.98750602  0.86517856     0.08200
C1541       C  0.60731942  0.01656861  0.83534853    -0.14000
C1542       C  0.63451872  0.01884771  0.80503044    -0.14000
C1543       C  0.66499040  0.99147000  0.80347282     0.08200
C1544       C  0.66608767  0.96057492  0.83203041    -0.14000
H1545       H  0.64170350  0.93594722  0.88540919     0.12200
H1546       H  0.58463535  0.03859418  0.83639541     0.12200
H1547       H  0.63195875  0.04309014  0.78421253     0.12200
H1548       H  0.68915576  0.93898531  0.83167715     0.12200
C1549       C  0.98651337  0.61557231  0.82712161    -0.14000
C1550       C  0.99876496  0.62455410  0.86626885     0.08200
C1551       C  0.53180842  0.64937187  0.86682564    -0.14000
C1552       C  0.53722895  0.67638691  0.83581797    -0.14000
C1553       C  0.00856350  0.68008190  0.80443651     0.08200
C1554       C  0.99125562  0.64327207  0.79645100    -0.14000
H1555       H  0.97324966  0.58717081  0.82019977     0.12200
H1556       H  0.55327820  0.64703584  0.89011712     0.12200
H1557       H  0.56259236  0.69498164  0.83585545     0.12200
H1558       H  0.98176681  0.63591276  0.76648726     0.12200
C1559       C  0.47429840  0.82489488  0.86821399    -0.14000
C1560       C  0.98374706  0.86664764  0.86139374     0.08200
C1561       C  0.99613387  0.87887315  0.82337093    -0.14000
C1562       C  0.00183759  0.85112298  0.79278841    -0.14000
C1563       C  0.99489258  0.81047095  0.79919810     0.08200
C1564       C  0.47981849  0.79719978  0.83724849    -0.14000
H1565       H  0.46585925  0.81422767  0.89736517     0.12200
H1566       H  0.00281177  0.90982000  0.81751045     0.12200
H1567       H  0.01249405  0.86138917  0.76428408     0.12200
H1568       H  0.47604196  0.76578256  0.84341030     0.12200
C1569       C  0.88289140  0.75637659  0.67149587    -0.14000
C1570       C  0.88615575  0.73583552  0.63484101     0.08200
C1571       C  0.91760960  0.71082106  0.62851424    -0.14000
C1572       C  0.94640973  0.70816316  0.65711559    -0.14000
C1573       C  0.94520822  0.73163652  0.69203327     0.08200
C1574       C  0.91250163  0.75458588  0.69985555    -0.14000
H1575       H  0.85848120  0.77545703  0.67723365     0.12200
H1576       H  0.92024659  0.69376968  0.60110402     0.12200
H1577       H  0.97086235  0.68929990  0.65085994     0.12200
H1578       H  0.91094575  0.77298055  0.72646589     0.12200
C1579       C  0.60815519  0.78382794  0.63515470    -0.14000
C1580       C  0.63904629  0.75739258  0.63535473     0.08200
C1581       C  0.64358407  0.73099726  0.66744312    -0.14000
C1582       C  0.61601699  0.72891360  0.69747045    -0.17000
C1583       C  0.58364063  0.75386351  0.69632448     0.08200
C1584       C  0.58126822  0.78273068  0.66584992    -0.14000
H1585       H  0.60471211  0.80510348  0.61117732     0.12200
H1586       H  0.66775887  0.71076643  0.66842469     0.12200
H1587       H  0.62002036  0.70688970  0.72042212     0.12200
H1588       H  0.55701356  0.80280828  0.66442662     0.12200
C1589       C  0.76625935  0.62569036  0.66907539    -0.14000
C1590       C  0.74933596  0.61942018  0.63146175     0.08200
C1591       C  0.72745966  0.58484682  0.62474694    -0.14000
C1592       C  0.72154651  0.55769398  0.65560888    -0.14000
C1593       C  0.73803159  0.56444760  0.69319403     0.08200
C1594       C  0.76101358  0.59805977  0.69960230    -0.14000
H1595       H  0.78362046  0.65187598  0.67480010     0.12200
H1596       H  0.71414620  0.57935527  0.59599069     0.12200
H1597       H  0.70434729  0.53133276  0.65017389     0.12200
H1598       H  0.77447955  0.60307959  0.72836706     0.12200
C1599       C  0.76069923  0.86838253  0.67510735    -0.14000
C1600       C  0.76775561  0.88148020  0.63586209     0.08200
C1601       C  0.77121105  0.92266868  0.62902813    -0.14000
C1602       C  0.76583883  0.94998159  0.66033890    -0.14000
C1603       C  0.75591416  0.93666182  0.69869151     0.08200
C1604       C  0.75445227  0.89565756  0.70600433    -0.14000
H1605       H  0.75828916  0.83693984  0.68179901     0.12200
H1606       H  0.77696948  0.93384281  0.59935814     0.12200
H1607       H  0.76756880  0.98152750  0.65406699     0.12200
H1608       H  0.74747946  0.88472197  0.73548491     0.12200
C1609       C  0.87981545  0.60778416  0.49440180    -0.17100
C1610       C  0.91654550  0.61055627  0.50727533    -0.32200
H1611       H  0.86937508  0.57984259  0.48204611     0.12000
H1612       H  0.92630441  0.63898587  0.51914858     0.12500
C1613       C  0.62147739  0.63169517  0.50484591    -0.17100
C1614       C  0.61617504  0.60145954  0.47903825    -0.32200
H1615       H  0.60026812  0.63754717  0.52781273     0.12000
H1616       H  0.63717586  0.59698669  0.45556842     0.12500
C1617       C  0.63963343  0.89131867  0.50282582    -0.17100
C1618       C  0.60679929  0.89207909  0.48102283    -0.32200
H1619       H  0.64620210  0.91557074  0.52326645     0.12000
H1620       H  0.60084656  0.86686314  0.46159032     0.12500
C1621       C  0.90456674  0.90628250  0.49190976    -0.17100
C1622       C  0.90235199  0.86966628  0.50780436    -0.32200
H1623       H  0.87919815  0.91869233  0.47778103     0.12000
H1624       H  0.92741345  0.85746992  0.52264273     0.12500
C1625       C  0.63994263  0.72849029  0.33299594    -0.14000
C1626       C  0.63801511  0.75759000  0.36322273     0.08200
C1627       C  0.61050250  0.78770466  0.36065774    -0.14000
C1628       C  0.58405678  0.78755439  0.32931558    -0.14000
C1629       C  0.58331028  0.75613619  0.30105397     0.08200
C1630       C  0.61270001  0.72749121  0.30235730    -0.14000
H1631       H  0.66170321  0.70548825  0.33402321     0.12200
H1632       H  0.60933069  0.81112789  0.38300037     0.12200
H1633       H  0.56213688  0.81040415  0.32885001     0.12200
H1634       H  0.61414710  0.70322604  0.28120237     0.12200
C1635       C  0.91505349  0.77413417  0.37013574    -0.14000
C1636       C  0.88481812  0.74726120  0.36590486     0.08200
C1637       C  0.88217908  0.72321295  0.33146454    -0.14000
C1638       C  0.91152924  0.72383280  0.30300440    -0.14000
C1639       C  0.94299059  0.74914953  0.30866175     0.08200
C1640       C  0.94348585  0.77558260  0.34143147    -0.14000
H1641       H  0.91681551  0.79381019  0.39584488     0.12200
H1642       H  0.85840840  0.70279247  0.32759094     0.12200
H1643       H  0.91066525  0.70331212  0.27796032     0.12200
H1644       H  0.96701383  0.79622271  0.34583055     0.12200
C1645       C  0.76942264  0.92184434  0.37058630    -0.14000
C1646       C  0.76851022  0.88039230  0.36401107     0.08200
C1647       C  0.76551053  0.86628207  0.32437521    -0.14000
C1648       C  0.76056219  0.89262742  0.29264290    -0.14000
C1649       C  0.75926653  0.93377672  0.29949568     0.08200
C1650       C  0.76507070  0.94831334  0.33851847    -0.14000
H1651       H  0.77198628  0.93380298  0.40056270     0.12200
H1652       H  0.76528628  0.83464491  0.31782785     0.12200
H1653       H  0.75637217  0.88079680  0.26280037     0.12200
H1654       H  0.76392416  0.98003463  0.34454987     0.12200
C1655       C  0.75035235  0.60011676  0.29539166    -0.14000
C1656       C  0.73722366  0.56188937  0.30484177     0.08200
C1657       C  0.72930812  0.55223868  0.34457003    -0.14000
C1658       C  0.73479984  0.58048627  0.37480253    -0.14000
C1659       C  0.74795595  0.61904155  0.36565608     0.08200
C1660       C  0.75564166  0.62855974  0.32555935    -0.14000
H1661       H  0.75631767  0.60793183  0.26468105     0.12200
H1662       H  0.71861263  0.52292245  0.35211575     0.12200
H1663       H  0.72814888  0.57227749  0.40524265     0.12200
H1664       H  0.76572618  0.65795809  0.31746877     0.12200
loop_ 
_geom_bond_atom_site_label_1 
_geom_bond_atom_site_label_2 
_geom_bond_distance 
_geom_bond_site_symmetry_2 
_ccdc_geom_bond_type 
O1          Zr37   2.452       .  S
O1           C12   1.294       .  A
O2          Zr36   2.428       .  S
O2           C13   1.291       .  A
O3           Zr9   2.466       .  S
O3           C14   1.298       .  A
O4           Zr9   2.482       .  S
O4           C15   1.301       .  A
O5          Zr39   2.424       .  S
O5           C15   1.288       .  A
O6          Zr38   2.435       .  S
O6           C14   1.293       .  A
O7           Zr9   2.433       .  S
O7           C13   1.292       .  A
O8           Zr9   2.436       .  S
O8           C12   1.292       .  A
Zr9          O10   2.342       .  S
Zr9          O11   2.347       .  S
Zr9          O19   2.334       .  S
Zr9          O17   2.346       .  S
O10         Zr36   2.338       .  S
O10         Zr39   2.339       .  S
O11         Zr37   2.321       .  S
O11         Zr38   2.342       .  S
C12         C411   1.485       .  S
C13         C342   1.475       .  S
C14         C361   1.483       .  S
C15         C365   1.482       .  S
H16          O17   0.965       .  S
O17         Zr36   2.328       .  S
O17         Zr38   2.340       .  S
H18          O19   0.966       .  S
O19         Zr37   2.336       .  S
O19         Zr39   2.343       .  S
O20         Zr36   2.428       .  S
O20          C43   1.291       .  A
O21         Zr37   2.427       .  S
O21          C44   1.291       .  A
O22         Zr38   2.451       .  S
O22          C45   1.295       .  A
O23         Zr39   2.459       .  S
O23          C46   1.295       .  A
O24         Zr39   2.455       .  S
O24          C47   1.295       .  A
O25         Zr38   2.455       .  S
O25          C48   1.296       .  A
O26         Zr40   2.481       .  S
O26          C49   1.301       .  A
O27         Zr40   2.488       .  S
O27          C50   1.302       .  A
O28         Zr38   2.438       .  S
O28          C49   1.291       .  A
O29         Zr39   2.413       .  S
O29          C50   1.287       .  A
O30         Zr36   2.425       .  S
O30          C45   1.288       .  A
O31         Zr37   2.410       .  S
O31          C48   1.285       .  A
O32         Zr37   2.389       .  S
O32          C47   1.282       .  A
O33         Zr36   2.403       .  S
O33          C46   1.285       .  A
O34         Zr40   2.477       .  S
O34          C43   1.300       .  A
O35         Zr40   2.467       .  S
O35          C44   1.298       .  A
Zr36         O42   2.334       .  S
Zr36         O54   2.340       .  S
Zr37         O41   2.344       .  S
Zr37         O52   2.345       .  S
Zr38         O42   2.344       .  S
Zr38         O52   2.343       .  S
Zr39         O41   2.340       .  S
Zr39         O54   2.345       .  S
Zr40         O41   2.352       .  S
Zr40         O42   2.356       .  S
Zr40         O54   2.347       .  S
Zr40         O52   2.361       .  S
C43         C352   1.496       .  S
C44         C398   1.490       .  S
C45         C322   1.476       .  S
C46         C332   1.467       .  S
C47         C378   1.459       .  S
C48         C388   1.470       .  S
C49         C374   1.488       .  S
C50         C369   1.481       .  S
H51          O52   0.967       .  S
H53          O54   0.966       .  S
N55          C60   1.358       .  A
N55         C891   1.360   1_455  A
N55          H87   1.040       .  S
N56          C64   1.353       .  A
N56         C479   1.356       .  A
N57          C62   1.360       .  A
N57         C893   1.360   1_455  A
N57          H88   1.040       .  S
N58          C66   1.358       .  A
N58         C481   1.358       .  A
C59         N887   1.359       .  A
C59          C67   1.387       .  A
C59          C75   1.423       .  A
C60          C76   1.424       .  A
C60          C68   1.387       .  A
C61         N889   1.361       .  A
C61          C69   1.387       .  A
C61          C78   1.431       .  A
C62          C77   1.428       .  A
C62          C70   1.389       .  A
C63         N472   1.354       .  A
C63          C75   1.416       .  A
C63          C71   1.387       .  A
C64          C78   1.414       .  A
C64          C72   1.386       .  A
C65         N474   1.357   1_545  A
C65          C73   1.386       .  A
C65          C76   1.419       .  A
C66          C74   1.387       .  A
C66          C77   1.425       .  A
C67         C900   1.376       .  A
C67          H79   1.082       .  S
C68         C899   1.377   1_455  A
C68          H80   1.082       .  S
C69         C902   1.380       .  A
C69          H81   1.081       .  S
C70         C901   1.378   1_455  A
C70          H82   1.081       .  S
C71         C488   1.371   1_545  A
C71          H83   1.082       .  S
C72         C487   1.370       .  A
C72          H84   1.083       .  S
C73         C490   1.362   1_545  A
C73          H85   1.081       .  S
C74         C489   1.360       .  A
C74          H86   1.080       .  S
C75         C362   1.506       .  S
C76         C366   1.504       .  S
C77         C370   1.513       .  S
C78         C373   1.506       .  S
O89        Zr125   2.427       .  S
O89         C100   1.291       .  A
O90        Zr124   2.411       .  S
O90         C101   1.288       .  A
O91        Zr929   2.459   1_456  S
O91         C102   1.296   1_556  A
O92         Zr97   2.447   1_554  S
O92         C103   1.293   1_554  A
O93        Zr127   2.458       .  S
O93         C103   1.296       .  A
O94        Zr126   2.430       .  S
O94         C102   1.291       .  A
O95         Zr97   2.466   1_554  S
O95         C101   1.297       .  A
O96         Zr97   2.466       .  S
O96         C100   1.298       .  A
Zr97        O923   2.465       .  S
Zr97         O98   2.353   1_556  S
Zr97        O107   2.357       .  S
Zr97        O931   2.350       .  S
Zr97        O937   2.345   1_556  S
O98        Zr124   2.335       .  S
O98        Zr127   2.341   1_554  S
O99        Zr126   2.339   1_556  S
O99        Zr929   2.346   1_456  S
O99        Zr957   2.335   1_455  S
C100        C312   1.493       .  S
C101        C249   1.478       .  S
C102        C266   1.480       .  S
C103        C269   1.477       .  S
H104        O105   0.967       .  S
O105       Zr126   2.340       .  S
O105       Zr929   2.339   1_455  S
O105       Zr956   2.339   1_455  S
H106        O107   0.966       .  S
O107       Zr125   2.341       .  S
O107       Zr127   2.345       .  S
O108       Zr540   2.430   1_545  S
O108        C131   1.291       .  A
O109       Zr541   2.438   1_545  S
O109        C132   1.291       .  A
O110       Zr126   2.456       .  S
O110        C133   1.296       .  A
O111       Zr127   2.453   1_554  S
O111        C134   1.295       .  A
O112       Zr127   2.454       .  S
O112        C135   1.296       .  A
O113       Zr126   2.473   1_556  S
O113        C136   1.299       .  A
O114       Zr960   2.477   1_454  S
O114        C137   1.300       .  A
O115       Zr128   2.479       .  S
O115        C138   1.300       .  A
O116       Zr542   2.425   1_544  S
O116        C137   1.289       .  A
O117       Zr543   2.456       .  S
O117        C138   1.296       .  A
O118       Zr956   2.408   1_455  S
O118        C133   1.286       .  A
O119       Zr957   2.401   1_455  S
O119        C136   1.285       .  A
O120       Zr125   2.410       .  S
O120        C135   1.286       .  A
O121       Zr124   2.416       .  S
O121        C134   1.287       .  A
O122       Zr128   2.435   1_554  S
O122        C131   1.292       .  A
O123       Zr128   2.432       .  S
O123        C132   1.291       .  A
Zr124       O524   2.437       .  S
Zr124       O950   2.406       .  S
Zr124       O937   2.343       .  S
Zr124      O1378   2.335       .  S
Zr124       O558   2.327       .  S
Zr125       O525   2.436       .  S
Zr125       O951   2.418       .  S
Zr125       O931   2.337       .  S
Zr125       O545   2.329       .  S
Zr125      O1388   2.338       .  S
Zr126       O532   2.434       .  S
Zr126       O546   2.347       .  S
Zr126       O556   2.344   1_554  S
Zr127       O533   2.437       .  S
Zr127       O545   2.340       .  S
Zr127       O558   2.347   1_556  S
Zr128       O946   2.489   1_556  S
Zr128       O129   2.347       .  S
Zr128       O142   2.349   1_556  S
Zr128       O962   2.347   1_556  S
Zr128       O972   2.343       .  S
O129       Zr541   2.328   1_545  S
O129       Zr543   2.347       .  S
O130      Zr1372   2.331   1_445  S
O130       Zr542   2.346   1_544  S
O130       Zr960   2.343   1_454  S
C131        C256   1.480       .  S
C132        C302   1.468       .  S
C133        C226   1.468       .  S
C134        C236   1.473       .  S
C135        C282   1.474       .  S
C136        C292   1.477       .  S
C137        C277   1.483       .  S
C138        C273   1.497       .  S
H139        O140   0.964       .  S
O140      Zr1373   2.334   1_445  S
O140       Zr542   2.348   1_545  S
O140       Zr960   2.346   1_455  S
H141        O142   0.964       .  S
O142       Zr540   2.327   1_545  S
O142       Zr543   2.346   1_554  S
N143        C148   1.359       .  A
N143        C147   1.357       .  A
N143        H175   1.037       .  S
N144        C151   1.357       .  A
N144        C152   1.359       .  A
N145        C150   1.359   1_554  A
N145        C149   1.358   1_554  A
N145        H176   1.041       .  S
N146        C153   1.353       .  A
N146        C154   1.350       .  A
C147        C155   1.391       .  A
C147        C163   1.430       .  A
C148        C164   1.424       .  A
C148        C156   1.385       .  A
C149        C157   1.387       .  A
C149        C166   1.425   1_556  A
C150        C165   1.426   1_556  A
C150        C158   1.387       .  A
C151        C163   1.425       .  A
C151        C159   1.388       .  A
C152        C166   1.424       .  A
C152        C160   1.385       .  A
C153        C161   1.387       .  A
C153        C164   1.414       .  A
C154        C162   1.386       .  A
C154        C165   1.410       .  A
C155        C156   1.374       .  A
C155        H167   1.079       .  S
C156        H168   1.082   1_554  S
C157        C158   1.381       .  A
C157        H169   1.082       .  S
C158        H170   1.082       .  S
C159        C160   1.374       .  A
C159        H171   1.081       .  S
C160        H172   1.081       .  S
C161        C162   1.370       .  A
C161        H173   1.082       .  S
C162        H174   1.083       .  S
C163        C270   1.504       .  S
C164        C265   1.503       .  S
C165        C278   1.500   1_554  S
C166        C274   1.517       .  S
C177        C178   1.538       .  S
C177        C181   1.536       .  S
C177       C1015   1.520       .  S
C177        C381   1.516       .  S
C178        H185   1.083       .  S
C178       C1011   1.366       .  D
C179        C259   1.470       .  S
C179        C180   1.544       .  S
C179       C1010   1.366       .  D
C180        C184   1.544       .  S
C180        C182   1.539       .  S
C180        H186   1.109       .  S
C181        H187   1.085       .  S
C181       C1014   1.373       .  D
C182        C246   1.491       .  S
C182       C1013   1.375       .  D
C183       C1009   1.517       .  S
C183        H188   1.088       .  S
C183        C184   1.354       .  D
C184        C391   1.481       .  S
C189        C190   1.530       .  S
C189        C195   1.524       .  S
C189        C609   1.545       .  S
C189        C229   1.519       .  S
C190        H197   1.086       .  S
C190        C191   1.369       .  D
C191        C401   1.488       .  S
C191        C192   1.545       .  S
C192        C196   1.547       .  S
C192        C610   1.539       .  S
C192        H198   1.111       .  S
C193        C605   1.550   1_545  S
C193        H199   1.082       .  S
C193        C194   1.370       .  D
C194        C408   1.475       .  S
C194        C608   1.535       .  S
C195        H200   1.087       .  S
C195        C196   1.356       .  D
C196        C239   1.481       .  S
C201        C202   1.534       .  S
C201        C205   1.547       .  S
C201       C1039   1.524       .  S
C201        C335   1.522       .  S
C202        H209   1.086       .  S
C202       C1035   1.370       .  D
C203        C315   1.488       .  S
C203        C204   1.543       .  S
C203       C1034   1.374       .  D
C204        C208   1.544       .  S
C204        C206   1.535       .  S
C204        H210   1.111       .  S
C205        H211   1.081       .  S
C205       C1038   1.369       .  D
C206        C305   1.475       .  S
C206       C1037   1.367       .  D
C207       C1033   1.523       .  S
C207        H212   1.087       .  S
C207        C208   1.357       .  D
C208        C325   1.483       .  S
C213        C219   1.522       .  S
C213        C217   1.536       .  S
C213        C630   1.550       .  S
C213        C295   1.529       .  S
C214        C629   1.543   1_545  S
C214        H221   1.082       .  S
C214        C215   1.365       .  D
C215        C345   1.462       .  S
C215        C632   1.533       .  S
C216        C220   1.544       .  S
C216        C218   1.543       .  S
C216        C631   1.532       .  S
C216        H222   1.111       .  S
C217        H223   1.086       .  S
C217        C218   1.373       .  D
C218        C355   1.492       .  S
C219        H224   1.086       .  S
C219        C220   1.358       .  D
C220        C285   1.483       .  S
C225        C226   1.405       .  A
C225        C230   1.396       .  A
C225        H231   1.083       .  S
C226        C227   1.398       .  A
C227        C228   1.393       .  A
C227        H232   1.084       .  S
C228        C229   1.412       .  A
C228        H233   1.084       .  S
C229        C230   1.405       .  A
C230        H234   1.078       .  S
C235        C236   1.400       .  A
C235        C240   1.394       .  A
C235        H241   1.084       .  S
C236        C237   1.408       .  A
C237        C238   1.401       .  A
C237        H242   1.083       .  S
C238        C239   1.401       .  A
C238        H243   1.083       .  S
C239        C240   1.409       .  A
C240        H244   1.083       .  S
C245        C250   1.392   1_455  A
C245       C1078   1.402   1_455  A
C245        H251   1.082       .  S
C246        C247   1.411       .  A
C246       C1077   1.402       .  A
C247        C248   1.402       .  A
C247        H252   1.079       .  S
C248        C249   1.402       .  A
C248        H253   1.083       .  S
C249       C1082   1.407       .  A
C250       C1081   1.407       .  A
C250        H254   1.083   1_655  S
C255        C256   1.409       .  A
C255        C260   1.395       .  A
C255        H261   1.083       .  S
C256       C1089   1.406       .  A
C257        C258   1.397       .  A
C257       C1088   1.408   1_455  A
C257        H262   1.083       .  S
C258       C1091   1.400       .  A
C258        H263   1.082       .  S
C259        C260   1.398       .  A
C259       C1090   1.401       .  A
C260        H264   1.083       .  S
C265        H267   1.086       .  S
C265        C266   1.352       .  D
C266        H268   1.085   1_554  S
C269        H271   1.085       .  S
C269        C270   1.348   1_556  D
C270        H272   1.086       .  S
C273        H275   1.085       .  S
C273        C274   1.357   1_556  D
C274        H276   1.087       .  S
C277        H279   1.086       .  S
C277        C278   1.342   1_554  D
C278        H280   1.087       .  S
C281        C282   1.409       .  A
C281        C286   1.402       .  A
C281        H287   1.083       .  S
C282        C283   1.399       .  A
C283        C284   1.390       .  A
C283        H704   1.084       .  S
C284        C285   1.409       .  A
C284        H705   1.083       .  S
C285        C286   1.402       .  A
C286        H290   1.083       .  S
H288        C699   1.083       .  S
H289        C700   1.083       .  S
C291        C292   1.399       .  A
C291        C296   1.398       .  A
C291        H297   1.083       .  S
C292        C293   1.407       .  A
C293        C294   1.397       .  A
C293        H298   1.083       .  S
C294        C295   1.406       .  A
C294        H299   1.078       .  S
C295        C296   1.415       .  A
C296        H300   1.083       .  S
C301        C302   1.402       .  A
C301        C306   1.397       .  A
C301        H307   1.083       .  S
C302       C1135   1.404       .  A
C303        C304   1.398       .  A
C303       C1134   1.402       .  A
C303        H308   1.084       .  S
C304       C1137   1.405       .  A
C304        H309   1.083       .  S
C305        C306   1.401       .  A
C305       C1136   1.404       .  A
C306        H310   1.083       .  S
C311        C316   1.404       .  A
C311       C1144   1.406       .  A
C311        H317   1.083       .  S
C312        C313   1.411       .  A
C312       C1143   1.407       .  A
C313        C314   1.397       .  A
C313        H318   1.083       .  S
C314        C315   1.399       .  A
C314        H319   1.083       .  S
C315       C1148   1.409       .  A
C316       C1147   1.408       .  A
C316        H320   1.083       .  S
C321        C322   1.407       .  A
C321        C326   1.400       .  A
C321        H327   1.083       .  S
C322        C323   1.401       .  A
C323        C324   1.394       .  A
C323        H328   1.084       .  S
C324        C325   1.409       .  A
C324        H329   1.083       .  S
C325        C326   1.401       .  A
C326        H330   1.083       .  S
C331        C332   1.398       .  A
C331        C336   1.397       .  A
C331        H337   1.083       .  S
C332        C333   1.403       .  A
C333        C334   1.393       .  A
C333        H338   1.084       .  S
C334        C335   1.406       .  A
C334        H339   1.077       .  S
C335        C336   1.413       .  A
C336        H340   1.083       .  S
C341        C342   1.408       .  A
C341        C346   1.395       .  A
C341        H347   1.083       .  S
C342        C343   1.406       .  A
C343        C344   1.394       .  A
C343        H348   1.083       .  S
C344        C345   1.399       .  A
C344        H349   1.083       .  S
C345        C346   1.397       .  A
C346        H350   1.083       .  S
C351        C352   1.411       .  A
C351        C356   1.397       .  A
C351        H357   1.083       .  S
C352        C353   1.408       .  A
C353        C354   1.407       .  A
C353        H358   1.083       .  S
C354        C355   1.409       .  A
C354        H359   1.082       .  S
C355        C356   1.401       .  A
C356        H360   1.083       .  S
C361        H363   1.085       .  S
C361        C362   1.353       .  D
C362        H364   1.087       .  S
C365        H367   1.086       .  S
C365        C366   1.343       .  D
C366        H368   1.086       .  S
C369        H371   1.085       .  S
C369        C370   1.358       .  D
C370        H372   1.084       .  S
C373        H375   1.087       .  S
C373        C374   1.344       .  D
C374        H376   1.086       .  S
C377        C378   1.404       .  A
C377        C382   1.394       .  A
C377        H383   1.084       .  S
C378        C379   1.394       .  A
C379        C380   1.390       .  A
C379        H384   1.084       .  S
C380        C381   1.413       .  A
C380        H385   1.084       .  S
C381        C382   1.405       .  A
C382        H386   1.078       .  S
C387        C388   1.395       .  A
C387        C392   1.385       .  A
C387        H393   1.084       .  S
C388        C389   1.411       .  A
C389        C390   1.405       .  A
C389        H394   1.083       .  S
C390        C391   1.402       .  A
C390        H395   1.083       .  S
C391        C392   1.409       .  A
C392        H396   1.083       .  S
C397        C398   1.407       .  A
C397        C402   1.405       .  A
C397        H403   1.083       .  S
C398        C399   1.409       .  A
C399        C400   1.394       .  A
C399        H404   1.083       .  S
C400        C401   1.403       .  A
C400        H405   1.083       .  S
C401        C402   1.407       .  A
C402        H406   1.082       .  S
C407        C408   1.400       .  A
C407        C412   1.400       .  A
C407        H413   1.083       .  S
C408        C409   1.402       .  A
C409        C410   1.400       .  A
C409        H414   1.083       .  S
C410        C411   1.408       .  A
C410        H415   1.083       .  S
C411        C412   1.408       .  A
C412        H416   1.083       .  S
O417       Zr453   2.438       .  S
O417        C428   1.292       .  A
O418       Zr452   2.431       .  S
O418        C429   1.291       .  A
O419       Zr425   2.464       .  S
O419        C430   1.297       .  A
O420       Zr425   2.472       .  S
O420        C431   1.299       .  A
O421       Zr455   2.431       .  S
O421        C431   1.290       .  A
O422       Zr454   2.440       .  S
O422        C430   1.293       .  A
O423       Zr425   2.435       .  S
O423        C429   1.292       .  A
O424       Zr425   2.438       .  S
O424        C428   1.293       .  A
Zr425       O426   2.341       .  S
Zr425       O427   2.341       .  S
Zr425       O435   2.338       .  S
Zr425       O433   2.352       .  S
O426       Zr452   2.336       .  S
O426       Zr455   2.337       .  S
O427       Zr453   2.328       .  S
O427       Zr454   2.344       .  S
C428        C827   1.482       .  S
C429        C758   1.476       .  S
C430        C777   1.485       .  S
C431        C781   1.479       .  S
H432        O433   0.966       .  S
O433       Zr452   2.329       .  S
O433       Zr454   2.337       .  S
H434        O435   0.966       .  S
O435       Zr453   2.331       .  S
O435       Zr455   2.338       .  S
O436       Zr452   2.424       .  S
O436        C459   1.290       .  A
O437       Zr453   2.422       .  S
O437        C460   1.290       .  A
O438       Zr454   2.452       .  S
O438        C461   1.295       .  A
O439       Zr455   2.459       .  S
O439        C462   1.296       .  A
O440       Zr455   2.458       .  S
O440        C463   1.295       .  A
O441       Zr454   2.439       .  S
O441        C464   1.294       .  A
O442       Zr456   2.481       .  S
O442        C465   1.301       .  A
O443       Zr456   2.486       .  S
O443        C466   1.301       .  A
O444       Zr454   2.437       .  S
O444        C465   1.291       .  A
O445       Zr455   2.413       .  S
O445        C466   1.287       .  A
O446       Zr452   2.415       .  S
O446        C461   1.286       .  A
O447       Zr453   2.411       .  S
O447        C464   1.286       .  A
O448       Zr453   2.412       .  S
O448        C463   1.286       .  A
O449       Zr452   2.390       .  S
O449        C462   1.282       .  A
O450       Zr456   2.449       .  S
O450        C459   1.295       .  A
O451       Zr456   2.457       .  S
O451        C460   1.296       .  A
Zr452       O458   2.326       .  S
Zr452       O470   2.340       .  S
Zr453       O457   2.338       .  S
Zr453       O468   2.343       .  S
Zr454       O458   2.334       .  S
Zr454       O468   2.349       .  S
Zr455       O457   2.343       .  S
Zr455       O470   2.346       .  S
Zr456       O457   2.350       .  S
Zr456       O458   2.352       .  S
Zr456       O470   2.350       .  S
Zr456       O468   2.351       .  S
C459        C768   1.484       .  S
C460        C814   1.487       .  S
C461        C738   1.472       .  S
C462        C748   1.460       .  S
C463        C794   1.468       .  S
C464        C804   1.459       .  S
C465        C790   1.488       .  S
C466        C785   1.478       .  S
H467        O468   0.967       .  S
H469        O470   0.966       .  S
N471        C476   1.357       .  A
N471       C1307   1.360   1_455  A
N471        H503   1.038       .  S
N472        C480   1.352   1_545  A
N473        C478   1.360       .  A
N473       C1309   1.361   1_455  A
N473        H504   1.038       .  S
N474        C482   1.357       .  A
C475       N1303   1.359       .  A
C475        C483   1.388       .  A
C475        C491   1.423       .  A
C476        C492   1.425       .  A
C476        C484   1.387       .  A
C477       N1305   1.362       .  A
C477        C485   1.386       .  A
C477        C494   1.431       .  A
C478        C493   1.431       .  A
C478        C486   1.390       .  A
C479        C491   1.418       .  A
C479        C487   1.386       .  A
C480        C494   1.413       .  A
C480        C488   1.386       .  A
C481        C489   1.386       .  A
C481        C492   1.421       .  A
C482        C490   1.389       .  A
C482        C493   1.426       .  A
C483       C1316   1.375       .  A
C483        H495   1.082       .  S
C484       C1315   1.374   1_455  A
C484        H496   1.082       .  S
C485       C1318   1.379       .  A
C485        H497   1.081       .  S
C486       C1317   1.380   1_455  A
C486        H498   1.081       .  S
C487        H499   1.082       .  S
C488        H500   1.083       .  S
C489        H501   1.081       .  S
C490        H502   1.080       .  S
C491        C778   1.506       .  S
C492        C782   1.504       .  S
C493        C786   1.510       .  S
C494        C789   1.506       .  S
O505       Zr541   2.430       .  S
O505        C516   1.291       .  A
O506       Zr540   2.413       .  S
O506        C517   1.288       .  A
O507      Zr1345   2.461   1_455  S
O507        C518   1.296       .  A
O508       Zr513   2.449       .  S
O508        C519   1.294       .  A
O509       Zr543   2.469   1_565  S
O509        C519   1.298       .  A
O510       Zr542   2.433       .  S
O510        C518   1.291       .  A
O511       Zr513   2.460   1_554  S
O511        C517   1.296       .  A
O512       Zr513   2.455       .  S
O512        C516   1.296       .  A
Zr513      O1339   2.470       .  S
Zr513       O514   2.354   1_556  S
Zr513      O1347   2.345       .  S
Zr513       O523   2.357       .  S
Zr513      O1353   2.343   1_556  S
O514       Zr540   2.336       .  S
O514       Zr543   2.343   1_564  S
O515      Zr1345   2.348   1_455  S
O515      Zr1373   2.343   1_455  S
O515       Zr542   2.336       .  S
C516        C728   1.487       .  S
C517        C665   1.482       .  S
C518        C682   1.482       .  S
C519        C685   1.482       .  S
H520        O521   0.966       .  S
O521      Zr1345   2.339   1_454  S
O521      Zr1372   2.341   1_455  S
O521       Zr542   2.337   1_554  S
H522        O523   0.965       .  S
O523       Zr541   2.339       .  S
O523       Zr543   2.346   1_565  S
O524        C547   1.292       .  A
O525        C548   1.291       .  A
O526       Zr542   2.453   1_554  S
O526        C549   1.295       .  A
O527       Zr543   2.449   1_554  S
O527        C550   1.295       .  A
O528       Zr543   2.445       .  S
O528        C551   1.294       .  A
O529       Zr542   2.462       .  S
O529        C552   1.296       .  A
O530      Zr1376   2.484   1_455  S
O530        C553   1.302       .  A
O531       Zr544   2.481   1_556  S
O531        C554   1.301       .  A
O532        C553   1.291       .  A
O533        C554   1.293       .  A
O534      Zr1372   2.406   1_455  S
O534        C549   1.286       .  A
O535      Zr1373   2.403   1_455  S
O535        C552   1.285       .  A
O536       Zr541   2.413   1_545  S
O536        C551   1.285       .  A
O537       Zr540   2.416   1_545  S
O537        C550   1.287       .  A
O538       Zr544   2.444       .  S
O538        C547   1.294       .  A
O539       Zr544   2.429   1_556  S
O539        C548   1.291       .  A
Zr540      O1366   2.411       .  S
Zr540      O1353   2.338       .  S
Zr540       O962   2.332   1_565  S
Zr541      O1367   2.404       .  S
Zr541      O1347   2.342       .  S
Zr541       O972   2.334   1_565  S
Zr544      O1362   2.484       .  S
Zr544       O545   2.344   1_554  S
Zr544      O1378   2.342       .  S
Zr544       O558   2.348       .  S
Zr544      O1388   2.349   1_554  S
O546       Zr956   2.335   1_455  S
O546      Zr1376   2.344   1_455  S
C547        C672   1.481       .  S
C548        C718   1.463       .  S
C549        C642   1.467       .  S
C550        C652   1.471       .  S
C551        C698   1.460       .  S
C552        C708   1.468       .  S
C553        C693   1.490       .  S
C554        C689   1.490       .  S
H555        O556   0.963       .  S
O556       Zr957   2.338   1_455  S
O556      Zr1376   2.345   1_456  S
H557        O558   0.964       .  S
N559        C564   1.358       .  A
N559        C563   1.359       .  A
N559        H591   1.037       .  S
N560        C567   1.358       .  A
N560        C568   1.357       .  A
N561        C566   1.361   1_554  A
N561        C565   1.358   1_554  A
N561        H592   1.041       .  S
N562        C569   1.354       .  A
N562        C570   1.354       .  A
C563        C571   1.390       .  A
C563        C579   1.428       .  A
C564        C580   1.424       .  A
C564        C572   1.386       .  A
C565        C573   1.388       .  A
C565        C582   1.427   1_556  A
C566        C581   1.427   1_556  A
C566        C574   1.387       .  A
C567        C579   1.423       .  A
C567        C575   1.387       .  A
C568        C582   1.424       .  A
C568        C576   1.387       .  A
C569        C577   1.387       .  A
C569        C580   1.418       .  A
C570        C578   1.385       .  A
C570        C581   1.413       .  A
C571        C572   1.374       .  A
C571        H583   1.079       .  S
C572        H584   1.082   1_554  S
C573        C574   1.380       .  A
C573        H585   1.082       .  S
C574        H586   1.082       .  S
C575        C576   1.372       .  A
C575        H587   1.081       .  S
C576        H588   1.081       .  S
C577        C578   1.370       .  A
C577        H589   1.082       .  S
C578        H590   1.083       .  S
C579        C686   1.507       .  S
C580        C681   1.504       .  S
C581        C694   1.507   1_554  S
C582        C690   1.510       .  S
C593        C594   1.543       .  S
C593       C1431   1.519       .  S
C593        C597   1.541       .  S
C593        C797   1.524       .  S
C594        H601   1.083       .  S
C594       C1427   1.368       .  D
C595        C675   1.471       .  S
C595        C596   1.538       .  S
C595       C1426   1.368       .  D
C596        C600   1.540       .  S
C596        C598   1.539       .  S
C596        H602   1.111       .  S
C597        H603   1.086       .  S
C597       C1430   1.373       .  D
C598        C662   1.481       .  S
C598       C1429   1.372       .  D
C599       C1425   1.520       .  S
C599        H604   1.088       .  S
C599        C600   1.355       .  D
C600        C807   1.474       .  S
C605        C606   1.532       .  S
C605        C611   1.521   1_565  S
C605        C645   1.523       .  S
C606        H613   1.086       .  S
C606        C607   1.370       .  D
C607        C817   1.484       .  S
C607        C608   1.543   1_565  S
C608        C612   1.546       .  S
C608        H614   1.111       .  S
C609        H615   1.083       .  S
C609        C610   1.368       .  D
C610        C824   1.472       .  S
C611        H616   1.087       .  S
C611        C612   1.355       .  D
C612        C655   1.480       .  S
C617        C618   1.533       .  S
C617       C1455   1.522       .  S
C617        C621   1.544       .  S
C617        C751   1.518       .  S
C618        H625   1.086       .  S
C618       C1451   1.369       .  D
C619        C731   1.484       .  S
C619        C620   1.541       .  S
C619       C1450   1.371       .  D
C620        C624   1.540       .  S
C620        C622   1.538       .  S
C620        H626   1.111       .  S
C621        H627   1.083       .  S
C621       C1454   1.367       .  D
C622        C721   1.473       .  S
C622       C1453   1.368       .  D
C623       C1449   1.523       .  S
C623        H628   1.087       .  S
C623        C624   1.357       .  D
C624        C741   1.479       .  S
C629        C635   1.522   1_565  S
C629        C633   1.540       .  S
C629        C711   1.523       .  S
C630        H637   1.083       .  S
C630        C631   1.368       .  D
C631        C761   1.468       .  S
C632        C636   1.537       .  S
C632        C634   1.537   1_545  S
C632        H638   1.111       .  S
C633        H639   1.086       .  S
C633        C634   1.373       .  D
C634        C771   1.481       .  S
C635        H640   1.088       .  S
C635        C636   1.356       .  D
C636        C701   1.471       .  S
C641        C642   1.404   1_545  A
C641        C646   1.395       .  A
C641        H647   1.084       .  S
C642        C643   1.398       .  A
C643        C644   1.396       .  A
C643        H648   1.084       .  S
C644        C645   1.415       .  A
C644        H649   1.084       .  S
C645        C646   1.405   1_565  A
C646        H650   1.078       .  S
C651        C652   1.399       .  A
C651        C656   1.392       .  A
C651        H657   1.084       .  S
C652        C653   1.408   1_545  A
C653        C654   1.401       .  A
C653        H658   1.083       .  S
C654        C655   1.400   1_565  A
C654        H659   1.083       .  S
C655        C656   1.409       .  A
C656        H660   1.083       .  S
C661       C1494   1.400       .  A
C661        C666   1.395       .  A
C661        H667   1.083   1_655  S
C662       C1493   1.399       .  A
C662        C663   1.408       .  A
C663        C664   1.404       .  A
C663        H668   1.082       .  S
C664        C665   1.405       .  A
C664        H669   1.083       .  S
C665       C1498   1.409       .  A
C666       C1497   1.411       .  A
C666        H670   1.083       .  S
C671        C672   1.409       .  A
C671        C676   1.401       .  A
C671        H677   1.083       .  S
C672       C1505   1.405       .  A
C673       C1504   1.405   1_455  A
C673        C674   1.395       .  A
C673        H678   1.083       .  S
C674       C1507   1.400       .  A
C674        H679   1.083       .  S
C675       C1506   1.401       .  A
C675        C676   1.400       .  A
C676        H680   1.083       .  S
C681        H683   1.086       .  S
C681        C682   1.352   1_554  D
C682        H684   1.085       .  S
C685        H687   1.085       .  S
C685        C686   1.349   1_556  D
C686        H688   1.086       .  S
C689        H691   1.085       .  S
C689        C690   1.356   1_556  D
C690        H692   1.087       .  S
C693        H695   1.086       .  S
C693        C694   1.345   1_554  D
C694        H696   1.087       .  S
C697        C698   1.394   1_565  A
C697        C702   1.384       .  A
C697        H703   1.084       .  S
C698        C699   1.408       .  A
C699        C700   1.405       .  A
C700        C701   1.403       .  A
C701        C702   1.404   1_545  A
C702        H706   1.084       .  S
C707        C708   1.398       .  A
C707        C712   1.398       .  A
C707        H713   1.083       .  S
C708        C709   1.403   1_565  A
C709        C710   1.393       .  A
C709        H714   1.084       .  S
C710        C711   1.406   1_545  A
C710        H715   1.077       .  S
C711        C712   1.414       .  A
C712        H716   1.083       .  S
C717        C718   1.403       .  A
C717        C722   1.398       .  A
C717        H723   1.083       .  S
C718       C1551   1.401       .  A
C719       C1550   1.406   1_455  A
C719        C720   1.396       .  A
C719        H724   1.083       .  S
C720       C1553   1.400       .  A
C720        H725   1.083       .  S
C721       C1552   1.403       .  A
C721        C722   1.402       .  A
C722        H726   1.083       .  S
C727       C1560   1.407       .  A
C727        C732   1.402       .  A
C727        H733   1.083       .  S
C728       C1559   1.407       .  A
C728        C729   1.408       .  A
C729        C730   1.395       .  A
C729        H734   1.083       .  S
C730        C731   1.401       .  A
C730        H735   1.083       .  S
C731       C1564   1.407       .  A
C732       C1563   1.405       .  A
C732        H736   1.082       .  S
C737        C738   1.409       .  A
C737        C742   1.403       .  A
C737        H743   1.083       .  S
C738        C739   1.398       .  A
C739        C740   1.389       .  A
C739        H744   1.083       .  S
C740        C741   1.406       .  A
C740        H745   1.083       .  S
C741        C742   1.403       .  A
C742        H746   1.083       .  S
C747        C748   1.395       .  A
C747        C752   1.392       .  A
C747        H753   1.083       .  S
C748        C749   1.404       .  A
C749        C750   1.395       .  A
C749        H754   1.084       .  S
C750        C751   1.406       .  A
C750        H755   1.078       .  S
C751        C752   1.412       .  A
C752        H756   1.083       .  S
C757        C758   1.407       .  A
C757        C762   1.396       .  A
C757        H763   1.083       .  S
C758        C759   1.406       .  A
C759        C760   1.398       .  A
C759        H764   1.083       .  S
C760        C761   1.401       .  A
C760        H765   1.083       .  S
C761        C762   1.398       .  A
C762        H766   1.083       .  S
C767        C768   1.409       .  A
C767        C772   1.393       .  A
C767        H773   1.083       .  S
C768        C769   1.407       .  A
C769        C770   1.402       .  A
C769        H774   1.083       .  S
C770        C771   1.407       .  A
C770        H775   1.081       .  S
C771        C772   1.398       .  A
C772        H776   1.083       .  S
C777        H779   1.086       .  S
C777        C778   1.353       .  D
C778        H780   1.086       .  S
C781        H783   1.086       .  S
C781        C782   1.343       .  D
C782        H784   1.086       .  S
C785        H787   1.085       .  S
C785        C786   1.355       .  D
C786        H788   1.085       .  S
C789        H791   1.087       .  S
C789        C790   1.344       .  D
C790        H792   1.086       .  S
C793        C794   1.404       .  A
C793        C798   1.397       .  A
C793        H799   1.084       .  S
C794        C795   1.397       .  A
C795        C796   1.396       .  A
C795        H800   1.084       .  S
C796        C797   1.414       .  A
C796        H801   1.084       .  S
C797        C798   1.407       .  A
C798        H802   1.078       .  S
C803        C804   1.395       .  A
C803        C808   1.385       .  A
C803        H809   1.084       .  S
C804        C805   1.407       .  A
C805        C806   1.402       .  A
C805        H810   1.083       .  S
C806        C807   1.401       .  A
C806        H811   1.083       .  S
C807        C808   1.407       .  A
C808        H812   1.084       .  S
C813        C814   1.407       .  A
C813        C818   1.405       .  A
C813        H819   1.083       .  S
C814        C815   1.409       .  A
C815        C816   1.392       .  A
C815        H820   1.083       .  S
C816        C817   1.399       .  A
C816        H821   1.083       .  S
C817        C818   1.408       .  A
C818        H822   1.082       .  S
C823        C824   1.400       .  A
C823        C828   1.399       .  A
C823        H829   1.083       .  S
C824        C825   1.401       .  A
C825        C826   1.398       .  A
C825        H830   1.083       .  S
C826        C827   1.408       .  A
C826        H831   1.083       .  S
C827        C828   1.408       .  A
C828        H832   1.083       .  S
O833       Zr869   2.436       .  S
O833        C844   1.290       .  A
O834       Zr868   2.433       .  S
O834        C845   1.291       .  A
O835       Zr841   2.479       .  S
O835        C846   1.300       .  A
O836       Zr841   2.476       .  S
O836        C847   1.300       .  A
O837       Zr871   2.428       .  S
O837        C847   1.289       .  A
O838       Zr870   2.435       .  S
O838        C846   1.292       .  A
O839       Zr841   2.431       .  S
O839        C845   1.292       .  A
O840       Zr841   2.435       .  S
O840        C844   1.291       .  A
Zr841       O842   2.345       .  S
Zr841       O843   2.345       .  S
Zr841       O851   2.341       .  S
Zr841       O849   2.347       .  S
O842       Zr868   2.335       .  S
O842       Zr871   2.342       .  S
O843       Zr869   2.327       .  S
O843       Zr870   2.344       .  S
C844       C1243   1.469       .  S
C845       C1174   1.475       .  S
C846       C1193   1.489       .  S
C847       C1197   1.480       .  S
H848        O849   0.965       .  S
O849       Zr868   2.331       .  S
O849       Zr870   2.341       .  S
H850        O851   0.966       .  S
O851       Zr869   2.335       .  S
O851       Zr871   2.347       .  S
O852       Zr868   2.425       .  S
O852        C875   1.291       .  A
O853       Zr869   2.422       .  S
O853        C876   1.290       .  A
O854       Zr870   2.452       .  S
O854        C877   1.295       .  A
O855       Zr871   2.459       .  S
O855        C878   1.295       .  A
O856       Zr871   2.454       .  S
O856        C879   1.295       .  A
O857       Zr870   2.451       .  S
O857        C880   1.296       .  A
O858       Zr872   2.477       .  S
O858        C881   1.301       .  A
O859       Zr872   2.484       .  S
O859        C882   1.302       .  A
O860       Zr870   2.438       .  S
O860        C881   1.292       .  A
O861       Zr871   2.426       .  S
O861        C882   1.289       .  A
O862       Zr868   2.432       .  S
O862        C877   1.290       .  A
O863       Zr869   2.411       .  S
O863        C880   1.285       .  A
O864       Zr869   2.395       .  S
O864        C879   1.283       .  A
O865       Zr868   2.415       .  S
O865        C878   1.288       .  A
O866       Zr872   2.482       .  S
O866        C875   1.301       .  A
O867       Zr872   2.470       .  S
O867        C876   1.299       .  A
Zr868       O874   2.336       .  S
Zr868       O886   2.343       .  S
Zr869       O873   2.341       .  S
Zr869       O884   2.342       .  S
Zr870       O874   2.344       .  S
Zr870       O884   2.346       .  S
Zr871       O873   2.337       .  S
Zr871       O886   2.342       .  S
Zr872       O873   2.347       .  S
Zr872       O874   2.357       .  S
Zr872       O886   2.348       .  S
Zr872       O884   2.360       .  S
C875       C1184   1.497       .  S
C876       C1230   1.490       .  S
C877       C1154   1.479       .  S
C878       C1164   1.474       .  S
C879       C1210   1.460       .  S
C880       C1220   1.468       .  S
C881       C1206   1.488       .  S
C882       C1201   1.486       .  S
H883        O884   0.967       .  S
H885        O886   0.966       .  S
N887        C892   1.357       .  A
N887        H919   1.039       .  S
N888       C1311   1.356       .  A
N888        C896   1.354       .  A
N889        C894   1.361       .  A
N889        H920   1.038       .  S
N890       C1313   1.358       .  A
N890        C898   1.359       .  A
C891        C899   1.386       .  A
C891        C907   1.423       .  A
C892        C908   1.423       .  A
C892        C900   1.387       .  A
C893        C901   1.387       .  A
C893        C910   1.429       .  A
C894        C909   1.434       .  A
C894        C902   1.390       .  A
C895       N1304   1.354       .  A
C895        C907   1.415       .  A
C895        C903   1.386       .  A
C896        C910   1.415       .  A
C896        C904   1.386       .  A
C897       N1306   1.357   1_545  A
C897        C905   1.385       .  A
C897        C908   1.419       .  A
C898        C906   1.388       .  A
C898        C909   1.428       .  A
C899        H911   1.082       .  S
C900        H912   1.082       .  S
C901        H913   1.081       .  S
C902        H914   1.080       .  S
C903       C1320   1.371   1_545  A
C903        H915   1.082       .  S
C904       C1319   1.371       .  A
C904        H916   1.082       .  S
C905       C1322   1.362   1_545  A
C905        H917   1.081       .  S
C906       C1321   1.361       .  A
C906        H918   1.080       .  S
C907       C1194   1.509       .  S
C908       C1198   1.502       .  S
C909       C1202   1.518       .  S
C910       C1205   1.508       .  S
O921       Zr957   2.415       .  S
O921        C932   1.288       .  A
O922       Zr956   2.410       .  S
O922        C933   1.287       .  A
O923        C934   1.297   1_556  A
O924       Zr929   2.436       .  S
O924        C935   1.292   1_554  A
O925       Zr959   2.458       .  S
O925        C935   1.296       .  A
O926       Zr958   2.440       .  S
O926        C934   1.293       .  A
O927       Zr929   2.469       .  S
O927        C933   1.298       .  A
O928       Zr929   2.462   1_556  S
O928        C932   1.297       .  A
Zr929       O930   2.354       .  S
Zr929       O939   2.359   1_554  S
O930       Zr956   2.335       .  S
O930       Zr959   2.345   1_554  S
O931       Zr958   2.342   1_556  S
C932       C1144   1.487       .  S
C933       C1081   1.479       .  S
C934       C1098   1.486       .  S
C935       C1101   1.473       .  S
H936        O937   0.967       .  S
O937       Zr958   2.343       .  S
H938        O939   0.966       .  S
O939       Zr957   2.336       .  S
O939       Zr959   2.344       .  S
O940      Zr1372   2.437   1_545  S
O940        C963   1.292       .  A
O941      Zr1373   2.445   1_545  S
O941        C964   1.292       .  A
O942       Zr958   2.447       .  S
O942        C965   1.294       .  A
O943       Zr959   2.457   1_554  S
O943        C966   1.296       .  A
O944       Zr959   2.458       .  S
O944        C967   1.297       .  A
O945       Zr958   2.468   1_556  S
O945        C968   1.298       .  A
O946        C969   1.303       .  A
O947       Zr960   2.478       .  S
O947        C970   1.300       .  A
O948      Zr1374   2.423   1_545  S
O948        C969   1.289       .  A
O949      Zr1375   2.452       .  S
O949        C970   1.295       .  A
O950        C965   1.286       .  A
O951        C968   1.288       .  A
O952       Zr957   2.409       .  S
O952        C967   1.285       .  A
O953       Zr956   2.412       .  S
O953        C966   1.286       .  A
O954       Zr960   2.438   1_554  S
O954        C963   1.293       .  A
O955       Zr960   2.434       .  S
O955        C964   1.291       .  A
Zr956      O1356   2.428       .  S
Zr956      O1390   2.328       .  S
Zr957      O1357   2.429       .  S
Zr957      O1377   2.323       .  S
Zr958      O1364   2.440       .  S
Zr958      O1378   2.349       .  S
Zr958      O1388   2.342   1_554  S
Zr959      O1365   2.436       .  S
Zr959      O1377   2.338       .  S
Zr959      O1390   2.347   1_556  S
Zr960       O961   2.348       .  S
Zr960       O974   2.347   1_556  S
O961      Zr1373   2.329   1_545  S
O961      Zr1375   2.346       .  S
O962      Zr1374   2.345   1_545  S
C963       C1088   1.484       .  S
C964       C1134   1.468   1_655  S
C965       C1058   1.463       .  S
C966       C1068   1.471       .  S
C967       C1114   1.475       .  S
C968       C1124   1.482       .  S
C969       C1109   1.488       .  S
C970       C1105   1.494       .  S
H971        O972   0.964       .  S
O972      Zr1374   2.347   1_546  S
H973        O974   0.965       .  S
O974      Zr1372   2.327   1_545  S
O974      Zr1375   2.348   1_554  S
N975        C980   1.359       .  A
N975        C979   1.357       .  A
N975       H1007   1.037       .  S
N976        C983   1.356       .  A
N976        C984   1.358       .  A
N977        C982   1.360   1_554  A
N977        C981   1.358   1_554  A
N977       H1008   1.041       .  S
N978        C985   1.354       .  A
N978        C986   1.351       .  A
C979        C987   1.391       .  A
C979        C995   1.429       .  A
C980        C996   1.424       .  A
C980        C988   1.385       .  A
C981        C989   1.388       .  A
C981        C998   1.426   1_556  A
C982        C997   1.428       .  A
C982        C990   1.387       .  A
C983        C995   1.423       .  A
C983        C991   1.388       .  A
C984        C998   1.423       .  A
C984        C992   1.386       .  A
C985        C993   1.386       .  A
C985        C996   1.415       .  A
C986        C994   1.385       .  A
C986        C997   1.410   1_554  A
C987        C988   1.374       .  A
C987        H999   1.079       .  S
C988       H1000   1.081   1_554  S
C989        C990   1.383       .  A
C989       H1001   1.082       .  S
C990       H1002   1.082       .  S
C991        C992   1.373       .  A
C991       H1003   1.081       .  S
C992       H1004   1.081       .  S
C993        C994   1.370       .  A
C993       H1005   1.082       .  S
C994       H1006   1.082       .  S
C995       C1102   1.501       .  S
C996       C1097   1.508       .  S
C997       C1110   1.505       .  S
C998       C1106   1.514       .  S
C1009      C1010   1.537       .  S
C1009      C1013   1.538       .  S
C1009      C1213   1.518       .  S
C1010      H1017   1.083       .  S
C1011      C1091   1.469       .  S
C1011      C1012   1.543   1_455  S
C1012      C1016   1.542       .  S
C1012      C1014   1.540   1_655  S
C1012      H1018   1.109       .  S
C1013      H1019   1.085       .  S
C1014      C1078   1.489   1_455  S
C1015      H1020   1.087       .  S
C1015      C1016   1.355   1_455  D
C1016      C1223   1.480       .  S
C1021      C1022   1.531       .  S
C1021      C1027   1.523       .  S
C1021      C1441   1.545       .  S
C1021      C1061   1.516       .  S
C1022      H1029   1.086       .  S
C1022      C1023   1.368       .  D
C1023      C1233   1.491       .  S
C1023      C1024   1.548       .  S
C1024      C1028   1.548       .  S
C1024      C1442   1.539       .  S
C1024      H1030   1.111       .  S
C1025      C1437   1.546   1_545  S
C1025      H1031   1.081       .  S
C1025      C1026   1.367       .  D
C1026      C1240   1.476       .  S
C1026      C1440   1.537       .  S
C1027      H1032   1.088       .  S
C1027      C1028   1.354       .  D
C1028      C1071   1.479       .  S
C1033      C1034   1.540       .  S
C1033      C1037   1.548       .  S
C1033      C1167   1.529       .  S
C1034      H1041   1.086       .  S
C1035      C1147   1.482   1_455  S
C1035      C1036   1.540   1_455  S
C1036      C1040   1.543       .  S
C1036      C1038   1.537   1_655  S
C1036      H1042   1.110       .  S
C1037      H1043   1.081       .  S
C1038      C1137   1.478       .  S
C1039      H1044   1.087       .  S
C1039      C1040   1.356   1_455  D
C1040      C1157   1.482       .  S
C1045      C1462   1.550       .  S
C1045      C1051   1.523       .  S
C1045      C1049   1.538       .  S
C1045      C1127   1.533       .  S
C1046      C1461   1.543   1_545  S
C1046      H1053   1.082       .  S
C1046      C1047   1.366       .  D
C1047      C1177   1.464       .  S
C1047      C1464   1.535       .  S
C1048      C1463   1.531       .  S
C1048      C1052   1.543       .  S
C1048      C1050   1.543       .  S
C1048      H1054   1.111       .  S
C1049      H1055   1.086       .  S
C1049      C1050   1.372       .  D
C1050      C1187   1.492       .  S
C1051      H1056   1.086       .  S
C1051      C1052   1.358       .  D
C1052      C1117   1.484       .  S
C1057      C1058   1.403       .  A
C1057      C1062   1.394       .  A
C1057      H1063   1.084       .  S
C1058      C1059   1.397       .  A
C1059      C1060   1.392       .  A
C1059      H1064   1.084       .  S
C1060      C1061   1.412       .  A
C1060      H1065   1.084       .  S
C1061      C1062   1.405       .  A
C1062      H1066   1.078       .  S
C1067      C1068   1.400       .  A
C1067      C1072   1.397       .  A
C1067      H1073   1.084       .  S
C1068      C1069   1.407       .  A
C1069      C1070   1.398       .  A
C1069      H1074   1.083       .  S
C1070      C1071   1.399       .  A
C1070      H1075   1.083       .  S
C1071      C1072   1.410       .  A
C1072      H1076   1.084       .  S
C1077      C1082   1.391       .  A
C1077      H1083   1.082       .  S
C1078      C1079   1.410       .  A
C1079      C1080   1.402       .  A
C1079      H1084   1.080       .  S
C1080      C1081   1.402       .  A
C1080      H1085   1.083       .  S
C1082      H1086   1.083       .  S
C1087      C1088   1.410       .  A
C1087      C1092   1.397   1_655  A
C1087      H1093   1.083       .  S
C1089      C1090   1.396       .  A
C1089      H1094   1.083       .  S
C1090      H1095   1.079       .  S
C1091      C1092   1.398       .  A
C1092      H1096   1.083       .  S
C1097      H1099   1.086       .  S
C1097      C1098   1.354       .  D
C1098      H1100   1.085   1_554  S
C1101      H1103   1.085       .  S
C1101      C1102   1.346   1_556  D
C1102      H1104   1.086       .  S
C1105      H1107   1.085       .  S
C1105      C1106   1.357   1_556  D
C1106      H1108   1.086       .  S
C1109      H1111   1.086       .  S
C1109      C1110   1.342   1_554  D
C1110      H1112   1.087       .  S
C1113      C1114   1.410       .  A
C1113      C1118   1.403       .  A
C1113      H1119   1.083       .  S
C1114      C1115   1.399       .  A
C1115      C1116   1.390       .  A
C1115      H1536   1.084       .  S
C1116      C1117   1.408       .  A
C1116      H1537   1.083       .  S
C1117      C1118   1.402       .  A
C1118      H1122   1.083       .  S
H1120      C1531   1.083       .  S
H1121      C1532   1.083       .  S
C1123      C1124   1.400       .  A
C1123      C1128   1.399       .  A
C1123      H1129   1.083       .  S
C1124      C1125   1.408       .  A
C1125      C1126   1.400       .  A
C1125      H1130   1.083       .  S
C1126      C1127   1.407       .  A
C1126      H1131   1.078       .  S
C1127      C1128   1.415       .  A
C1128      H1132   1.083       .  S
C1133      C1134   1.402   1_655  A
C1133      C1138   1.398       .  A
C1133      H1139   1.083       .  S
C1135      C1136   1.399       .  A
C1135      H1140   1.084       .  S
C1136      H1141   1.083       .  S
C1137      C1138   1.403   1_455  A
C1138      H1142   1.083       .  S
C1143      C1148   1.406       .  A
C1143      H1149   1.083       .  S
C1144      C1145   1.411       .  A
C1145      C1146   1.392       .  A
C1145      H1150   1.083       .  S
C1146      C1147   1.398       .  A
C1146      H1151   1.083   1_655  S
C1148      H1152   1.083       .  S
C1153      C1154   1.408       .  A
C1153      C1158   1.402       .  A
C1153      H1159   1.083       .  S
C1154      C1155   1.402       .  A
C1155      C1156   1.395       .  A
C1155      H1160   1.084       .  S
C1156      C1157   1.408       .  A
C1156      H1161   1.084       .  S
C1157      C1158   1.401       .  A
C1158      H1162   1.083       .  S
C1163      C1164   1.400       .  A
C1163      C1168   1.401       .  A
C1163      H1169   1.083       .  S
C1164      C1165   1.402       .  A
C1165      C1166   1.395       .  A
C1165      H1170   1.084       .  S
C1166      C1167   1.408       .  A
C1166      H1171   1.076       .  S
C1167      C1168   1.414       .  A
C1168      H1172   1.083       .  S
C1173      C1174   1.408       .  A
C1173      C1178   1.395       .  A
C1173      H1179   1.083       .  S
C1174      C1175   1.406       .  A
C1175      C1176   1.396       .  A
C1175      H1180   1.083       .  S
C1176      C1177   1.400       .  A
C1176      H1181   1.083       .  S
C1177      C1178   1.397       .  A
C1178      H1182   1.083       .  S
C1183      C1184   1.412       .  A
C1183      C1188   1.398       .  A
C1183      H1189   1.083       .  S
C1184      C1185   1.407       .  A
C1185      C1186   1.407       .  A
C1185      H1190   1.083       .  S
C1186      C1187   1.409       .  A
C1186      H1191   1.082       .  S
C1187      C1188   1.401       .  A
C1188      H1192   1.083       .  S
C1193      H1195   1.085       .  S
C1193      C1194   1.357       .  D
C1194      H1196   1.086       .  S
C1197      H1199   1.086       .  S
C1197      C1198   1.343       .  D
C1198      H1200   1.086       .  S
C1201      H1203   1.085       .  S
C1201      C1202   1.360       .  D
C1202      H1204   1.084       .  S
C1205      H1207   1.087       .  S
C1205      C1206   1.346       .  D
C1206      H1208   1.086       .  S
C1209      C1210   1.403       .  A
C1209      C1214   1.394       .  A
C1209      H1215   1.084       .  S
C1210      C1211   1.395       .  A
C1211      C1212   1.392       .  A
C1211      H1216   1.084       .  S
C1212      C1213   1.414       .  A
C1212      H1217   1.084       .  S
C1213      C1214   1.405       .  A
C1214      H1218   1.078       .  S
C1219      C1220   1.396       .  A
C1219      C1224   1.384       .  A
C1219      H1225   1.084       .  S
C1220      C1221   1.410       .  A
C1221      C1222   1.405       .  A
C1221      H1226   1.083       .  S
C1222      C1223   1.402       .  A
C1222      H1227   1.083       .  S
C1223      C1224   1.408       .  A
C1224      H1228   1.083       .  S
C1229      C1230   1.406       .  A
C1229      C1234   1.404       .  A
C1229      H1235   1.083       .  S
C1230      C1231   1.409       .  A
C1231      C1232   1.397       .  A
C1231      H1236   1.083       .  S
C1232      C1233   1.405       .  A
C1232      H1237   1.083       .  S
C1233      C1234   1.407       .  A
C1234      H1238   1.082       .  S
C1239      C1240   1.402       .  A
C1239      C1244   1.399       .  A
C1239      H1245   1.083       .  S
C1240      C1241   1.404       .  A
C1241      C1242   1.396       .  A
C1241      H1246   1.083       .  S
C1242      C1243   1.402       .  A
C1242      H1247   1.084       .  S
C1243      C1244   1.404       .  A
C1244      H1248   1.083       .  S
O1249     Zr1285   2.438       .  S
O1249      C1260   1.292       .  A
O1250     Zr1284   2.435       .  S
O1250      C1261   1.292       .  A
O1251     Zr1257   2.471       .  S
O1251      C1262   1.298       .  A
O1252     Zr1257   2.472       .  S
O1252      C1263   1.299       .  A
O1253     Zr1287   2.430       .  S
O1253      C1263   1.289       .  A
O1254     Zr1286   2.444       .  S
O1254      C1262   1.294       .  A
O1255     Zr1257   2.426       .  S
O1255      C1261   1.290       .  A
O1256     Zr1257   2.429       .  S
O1256      C1260   1.291       .  A
Zr1257     O1258   2.342       .  S
Zr1257     O1259   2.341       .  S
Zr1257     O1267   2.341       .  S
Zr1257     O1265   2.346       .  S
O1258     Zr1284   2.335       .  S
O1258     Zr1287   2.342       .  S
O1259     Zr1285   2.330       .  S
O1259     Zr1286   2.344       .  S
C1260      C1659   1.481       .  S
C1261      C1590   1.471       .  S
C1262      C1609   1.490       .  S
C1263      C1613   1.477       .  S
H1264      O1265   0.966       .  S
O1265     Zr1284   2.331       .  S
O1265     Zr1286   2.335       .  S
H1266      O1267   0.966       .  S
O1267     Zr1285   2.332       .  S
O1267     Zr1287   2.341       .  S
O1268     Zr1284   2.429       .  S
O1268      C1291   1.291       .  A
O1269     Zr1285   2.424       .  S
O1269      C1292   1.290       .  A
O1270     Zr1286   2.456       .  S
O1270      C1293   1.296       .  A
O1271     Zr1287   2.464       .  S
O1271      C1294   1.297       .  A
O1272     Zr1287   2.472       .  S
O1272      C1295   1.298       .  A
O1273     Zr1286   2.447       .  S
O1273      C1296   1.295       .  A
O1274     Zr1288   2.489       .  S
O1274      C1297   1.303       .  A
O1275     Zr1288   2.496       .  S
O1275      C1298   1.303       .  A
O1276     Zr1286   2.433       .  S
O1276      C1297   1.291       .  A
O1277     Zr1287   2.417       .  S
O1277      C1298   1.288       .  A
O1278     Zr1284   2.417       .  S
O1278      C1293   1.286       .  A
O1279     Zr1285   2.401       .  S
O1279      C1296   1.284       .  A
O1280     Zr1285   2.403       .  S
O1280      C1295   1.284       .  A
O1281     Zr1284   2.398       .  S
O1281      C1294   1.284       .  A
O1282     Zr1288   2.456       .  S
O1282      C1291   1.296       .  A
O1283     Zr1288   2.462       .  S
O1283      C1292   1.297       .  A
Zr1284     O1290   2.330       .  S
Zr1284     O1302   2.343       .  S
Zr1285     O1289   2.340       .  S
Zr1285     O1300   2.341       .  S
Zr1286     O1290   2.341       .  S
Zr1286     O1300   2.346       .  S
Zr1287     O1289   2.344       .  S
Zr1287     O1302   2.348       .  S
Zr1288     O1289   2.353       .  S
Zr1288     O1290   2.356       .  S
Zr1288     O1302   2.349       .  S
Zr1288     O1300   2.350       .  S
C1291      C1600   1.488       .  S
C1292      C1646   1.490       .  S
C1293      C1570   1.475       .  S
C1294      C1580   1.467       .  S
C1295      C1626   1.470       .  S
C1296      C1636   1.459       .  S
C1297      C1622   1.489       .  S
C1298      C1617   1.484       .  S
H1299      O1300   0.966       .  S
H1301      O1302   0.966       .  S
N1303      C1308   1.356       .  A
N1303      H1335   1.038       .  S
N1304      C1312   1.352   1_545  A
N1305      C1310   1.361       .  A
N1305      H1336   1.038       .  S
N1306      C1314   1.358       .  A
C1307      C1315   1.387       .  A
C1307      C1323   1.425       .  A
C1308      C1324   1.423       .  A
C1308      C1316   1.388       .  A
C1309      C1317   1.386       .  A
C1309      C1326   1.430       .  A
C1310      C1325   1.432       .  A
C1310      C1318   1.389       .  A
C1311      C1323   1.418       .  A
C1311      C1319   1.385       .  A
C1312      C1326   1.411       .  A
C1312      C1320   1.385       .  A
C1313      C1321   1.385       .  A
C1313      C1324   1.420       .  A
C1314      C1322   1.389       .  A
C1314      C1325   1.427       .  A
C1315      H1327   1.082       .  S
C1316      H1328   1.082       .  S
C1317      H1329   1.081       .  S
C1318      H1330   1.081       .  S
C1319      H1331   1.082       .  S
C1320      H1332   1.083       .  S
C1321      H1333   1.081       .  S
C1322      H1334   1.080       .  S
C1323      C1610   1.511       .  S
C1324      C1614   1.501       .  S
C1325      C1618   1.515       .  S
C1326      C1621   1.505       .  S
O1337     Zr1373   2.431       .  S
O1337      C1348   1.292       .  A
O1338     Zr1372   2.414       .  S
O1338      C1349   1.288       .  A
O1339      C1350   1.297       .  A
O1340     Zr1345   2.445       .  S
O1340      C1351   1.293       .  A
O1341     Zr1375   2.467   1_565  S
O1341      C1351   1.298       .  A
O1342     Zr1374   2.429       .  S
O1342      C1350   1.290   1_554  A
O1343     Zr1345   2.475   1_554  S
O1343      C1349   1.299       .  A
O1344     Zr1345   2.461       .  S
O1344      C1348   1.297       .  A
Zr1345     O1346   2.349   1_556  S
Zr1345     O1355   2.359       .  S
O1346     Zr1372   2.333       .  S
O1346     Zr1375   2.339   1_564  S
O1347     Zr1374   2.342   1_556  S
C1348      C1560   1.488       .  S
C1349      C1497   1.489       .  S
C1350      C1514   1.482       .  S
C1351      C1517   1.481       .  S
H1352      O1353   0.967       .  S
O1353     Zr1374   2.334       .  S
H1354      O1355   0.965       .  S
O1355     Zr1373   2.344       .  S
O1355     Zr1375   2.344   1_565  S
O1356      C1379   1.290       .  A
O1357      C1380   1.290       .  A
O1358     Zr1374   2.463       .  S
O1358      C1381   1.296       .  A
O1359     Zr1375   2.443   1_554  S
O1359      C1382   1.294       .  A
O1360     Zr1375   2.441       .  S
O1360      C1383   1.293       .  A
O1361     Zr1374   2.462   1_556  S
O1361      C1384   1.296       .  A
O1362      C1385   1.301       .  A
O1363     Zr1376   2.479   1_556  S
O1363      C1386   1.301       .  A
O1364      C1385   1.292       .  A
O1365      C1386   1.293       .  A
O1366      C1381   1.286       .  A
O1367      C1384   1.286       .  A
O1368     Zr1373   2.411   1_545  S
O1368      C1383   1.285       .  A
O1369     Zr1372   2.418   1_545  S
O1369      C1382   1.287       .  A
O1370     Zr1376   2.451       .  S
O1370      C1379   1.295       .  A
O1371     Zr1376   2.442   1_556  S
O1371      C1380   1.294       .  A
Zr1376     O1377   2.344   1_554  S
Zr1376     O1390   2.346       .  S
C1379      C1504   1.480       .  S
C1380      C1550   1.480       .  S
C1381      C1474   1.472       .  S
C1382      C1484   1.472       .  S
C1383      C1530   1.458       .  S
C1384      C1540   1.467       .  S
C1385      C1525   1.492       .  S
C1386      C1521   1.489       .  S
H1387      O1388   0.963       .  S
H1389      O1390   0.964       .  S
N1391      C1396   1.358       .  A
N1391      C1395   1.359       .  A
N1391      H1423   1.037       .  S
N1392      C1399   1.359       .  A
N1392      C1400   1.358       .  A
N1393      C1398   1.361   1_554  A
N1393      C1397   1.358   1_554  A
N1393      H1424   1.039       .  S
N1394      C1401   1.355       .  A
N1394      C1402   1.355       .  A
C1395      C1403   1.390       .  A
C1395      C1411   1.428       .  A
C1396      C1412   1.424       .  A
C1396      C1404   1.386       .  A
C1397      C1405   1.389       .  A
C1397      C1414   1.428   1_556  A
C1398      C1413   1.428   1_556  A
C1398      C1406   1.387       .  A
C1399      C1411   1.424       .  A
C1399      C1407   1.386       .  A
C1400      C1414   1.426       .  A
C1400      C1408   1.387       .  A
C1401      C1409   1.386       .  A
C1401      C1412   1.418       .  A
C1402      C1410   1.385       .  A
C1402      C1413   1.415       .  A
C1403      C1404   1.373       .  A
C1403      H1415   1.079       .  S
C1404      H1416   1.081       .  S
C1405      C1406   1.381       .  A
C1405      H1417   1.082       .  S
C1406      H1418   1.082       .  S
C1407      C1408   1.371       .  A
C1407      H1419   1.081       .  S
C1408      H1420   1.081       .  S
C1409      C1410   1.369       .  A
C1409      H1421   1.082       .  S
C1410      H1422   1.082       .  S
C1411      C1518   1.508       .  S
C1412      C1513   1.506       .  S
C1413      C1526   1.510   1_554  S
C1414      C1522   1.510       .  S
C1425      C1426   1.543       .  S
C1425      C1429   1.537       .  S
C1425      C1629   1.523       .  S
C1426      H1433   1.082       .  S
C1427      C1507   1.471       .  S
C1427      C1428   1.539   1_455  S
C1428      C1432   1.540       .  S
C1428      C1430   1.540   1_655  S
C1428      H1434   1.111       .  S
C1429      H1435   1.086       .  S
C1430      C1494   1.487   1_455  S
C1431      H1436   1.088       .  S
C1431      C1432   1.354   1_455  D
C1432      C1639   1.474       .  S
C1437      C1438   1.537       .  S
C1437      C1443   1.522   1_565  S
C1437      C1477   1.528       .  S
C1438      H1445   1.086       .  S
C1438      C1439   1.372       .  D
C1439      C1649   1.484       .  S
C1439      C1440   1.543   1_565  S
C1440      C1444   1.545       .  S
C1440      H1446   1.111       .  S
C1441      H1447   1.082       .  S
C1441      C1442   1.367       .  D
C1442      C1656   1.469       .  S
C1443      H1448   1.087       .  S
C1443      C1444   1.357       .  D
C1444      C1487   1.482       .  S
C1449      C1450   1.535       .  S
C1449      C1453   1.543       .  S
C1449      C1583   1.523       .  S
C1450      H1457   1.086       .  S
C1451      C1563   1.485   1_455  S
C1451      C1452   1.544   1_455  S
C1452      C1456   1.543       .  S
C1452      C1454   1.537   1_655  S
C1452      H1458   1.110       .  S
C1453      H1459   1.082       .  S
C1454      C1553   1.469       .  S
C1455      H1460   1.087       .  S
C1455      C1456   1.357   1_455  D
C1456      C1573   1.481       .  S
C1461      C1467   1.520   1_565  S
C1461      C1465   1.542       .  S
C1461      C1543   1.523       .  S
C1462      H1469   1.083       .  S
C1462      C1463   1.370       .  D
C1463      C1593   1.467       .  S
C1464      C1468   1.538       .  S
C1464      C1466   1.537   1_545  S
C1464      H1470   1.111       .  S
C1465      H1471   1.086       .  S
C1465      C1466   1.373       .  D
C1466      C1603   1.483       .  S
C1467      H1472   1.088       .  S
C1467      C1468   1.356       .  D
C1468      C1533   1.470       .  S
C1473      C1474   1.403   1_545  A
C1473      C1478   1.396       .  A
C1473      H1479   1.084       .  S
C1474      C1475   1.400       .  A
C1475      C1476   1.398       .  A
C1475      H1480   1.083       .  S
C1476      C1477   1.413       .  A
C1476      H1481   1.083       .  S
C1477      C1478   1.409   1_565  A
C1478      H1482   1.077       .  S
C1483      C1484   1.399       .  A
C1483      C1488   1.391       .  A
C1483      H1489   1.084       .  S
C1484      C1485   1.408   1_545  A
C1485      C1486   1.401       .  A
C1485      H1490   1.083       .  S
C1486      C1487   1.401   1_565  A
C1486      H1491   1.083       .  S
C1487      C1488   1.409       .  A
C1488      H1492   1.083       .  S
C1493      C1498   1.391       .  A
C1493      H1499   1.083       .  S
C1494      C1495   1.408       .  A
C1495      C1496   1.405       .  A
C1495      H1500   1.082       .  S
C1496      C1497   1.406       .  A
C1496      H1501   1.083       .  S
C1498      H1502   1.083       .  S
C1503      C1504   1.410       .  A
C1503      C1508   1.401       .  A
C1503      H1509   1.083       .  S
C1505      C1506   1.397       .  A
C1505      H1510   1.083       .  S
C1506      H1511   1.084       .  S
C1507      C1508   1.400   1_455  A
C1508      H1512   1.083       .  S
C1513      H1515   1.086       .  S
C1513      C1514   1.353   1_554  D
C1514      H1516   1.085       .  S
C1517      H1519   1.085       .  S
C1517      C1518   1.350   1_556  D
C1518      H1520   1.086       .  S
C1521      H1523   1.085       .  S
C1521      C1522   1.356   1_556  D
C1522      H1524   1.087       .  S
C1525      H1527   1.086       .  S
C1525      C1526   1.347   1_554  D
C1526      H1528   1.087       .  S
C1529      C1530   1.395   1_565  A
C1529      C1534   1.383       .  A
C1529      H1535   1.084       .  S
C1530      C1531   1.407       .  A
C1531      C1532   1.404       .  A
C1532      C1533   1.402       .  A
C1533      C1534   1.404   1_545  A
C1534      H1538   1.084       .  S
C1539      C1540   1.398       .  A
C1539      C1544   1.398       .  A
C1539      H1545   1.083       .  S
C1540      C1541   1.403   1_565  A
C1541      C1542   1.395       .  A
C1541      H1546   1.084       .  S
C1542      C1543   1.407   1_545  A
C1542      H1547   1.077       .  S
C1543      C1544   1.414       .  A
C1544      H1548   1.083       .  S
C1549      C1550   1.409       .  A
C1549      C1554   1.398       .  A
C1549      H1555   1.083       .  S
C1551      C1552   1.395       .  A
C1551      H1556   1.084       .  S
C1552      H1557   1.083       .  S
C1553      C1554   1.399   1_455  A
C1554      H1558   1.083       .  S
C1559      C1564   1.403       .  A
C1559      H1565   1.083       .  S
C1560      C1561   1.409       .  A
C1561      C1562   1.396   1_655  A
C1561      H1566   1.083   1_655  S
C1562      C1563   1.403   1_455  A
C1562      H1567   1.083       .  S
C1564      H1568   1.083       .  S
C1569      C1570   1.410       .  A
C1569      C1574   1.404       .  A
C1569      H1575   1.083       .  S
C1570      C1571   1.398       .  A
C1571      C1572   1.390       .  A
C1571      H1576   1.083       .  S
C1572      C1573   1.408       .  A
C1572      H1577   1.083       .  S
C1573      C1574   1.402       .  A
C1574      H1578   1.083       .  S
C1579      C1580   1.397       .  A
C1579      C1584   1.395       .  A
C1579      H1585   1.083       .  S
C1580      C1581   1.404       .  A
C1581      C1582   1.396       .  A
C1581      H1586   1.084       .  S
C1582      C1583   1.407       .  A
C1582      H1587   1.078       .  S
C1583      C1584   1.412       .  A
C1584      H1588   1.083       .  S
C1589      C1590   1.405       .  A
C1589      C1594   1.396       .  A
C1589      H1595   1.083       .  S
C1590      C1591   1.406       .  A
C1591      C1592   1.397       .  A
C1591      H1596   1.083       .  S
C1592      C1593   1.400       .  A
C1592      H1597   1.083       .  S
C1593      C1594   1.399       .  A
C1594      H1598   1.083       .  S
C1599      C1600   1.410       .  A
C1599      C1604   1.396       .  A
C1599      H1605   1.083       .  S
C1600      C1601   1.407       .  A
C1601      C1602   1.402       .  A
C1601      H1606   1.083       .  S
C1602      C1603   1.406       .  A
C1602      H1607   1.082       .  S
C1603      C1604   1.399       .  A
C1604      H1608   1.083       .  S
C1609      H1611   1.085       .  S
C1609      C1610   1.355       .  D
C1610      H1612   1.086       .  S
C1613      H1615   1.086       .  S
C1613      C1614   1.342       .  D
C1614      H1616   1.086       .  S
C1617      H1619   1.085       .  S
C1617      C1618   1.358       .  D
C1618      H1620   1.085       .  S
C1621      H1623   1.087       .  S
C1621      C1622   1.343       .  D
C1622      H1624   1.086       .  S
C1625      C1626   1.405       .  A
C1625      C1630   1.398       .  A
C1625      H1631   1.084       .  S
C1626      C1627   1.397       .  A
C1627      C1628   1.396       .  A
C1627      H1632   1.083       .  S
C1628      C1629   1.414       .  A
C1628      H1633   1.084       .  S
C1629      C1630   1.407       .  A
C1630      H1634   1.078       .  S
C1635      C1636   1.395       .  A
C1635      C1640   1.385       .  A
C1635      H1641   1.084       .  S
C1636      C1637   1.407       .  A
C1637      C1638   1.402       .  A
C1637      H1642   1.083       .  S
C1638      C1639   1.400       .  A
C1638      H1643   1.083       .  S
C1639      C1640   1.408       .  A
C1640      H1644   1.084       .  S
C1645      C1646   1.407       .  A
C1645      C1650   1.405       .  A
C1645      H1651   1.083       .  S
C1646      C1647   1.411       .  A
C1647      C1648   1.396       .  A
C1647      H1652   1.083       .  S
C1648      C1649   1.399       .  A
C1648      H1653   1.083       .  S
C1649      C1650   1.407       .  A
C1650      H1654   1.083       .  S
C1655      C1656   1.400       .  A
C1655      C1660   1.398       .  A
C1655      H1661   1.083       .  S
C1656      C1657   1.399       .  A
C1657      C1658   1.396       .  A
C1657      H1662   1.083       .  S
C1658      C1659   1.408       .  A
C1658      H1663   1.083       .  S
C1659      C1660   1.408       .  A
C1660      H1664   1.083       .  S
