geometry optimzed in LAMMPS
_audit_creation_date              2020-11-30 
_audit_creation_method            'lammps2cif' 
_symmetry_space_group_name_H-M    'P1' 
_symmetry_Int_Tables_number       1 
_symmetry_cell_setting            triclinic 
loop_ 
_symmetry_equiv_pos_as_xyz 
  x,y,z 
_cell_length_a                    52.05809665 
_cell_length_b                    51.08522411923838 
_cell_length_c                    40.336958987850764 
_cell_angle_alpha                 90.061704381993 
_cell_angle_beta                  89.75760708830377 
_cell_angle_gamma                 90.05642172017727 
loop_ 
_atom_site_label 
_atom_site_type_symbol 
_atom_site_fract_x 
_atom_site_fract_y 
_atom_site_fract_z 
_atom_site_charge 
O1          O  0.25971318  0.20362792  0.40206686    -0.85800
O2          O  0.25943299  0.20629214  0.59226097    -0.86000
O3          O  0.30064115  0.17437781  0.49693930    -0.87700
O4          O  0.21713130  0.17473407  0.50066637    -0.86400
O5          O  0.18638815  0.20665713  0.49920486    -0.86000
O6          O  0.33118439  0.20657186  0.49679124    -0.87400
O7          O  0.26120148  0.17480000  0.55151504    -0.85800
O8          O  0.25934152  0.17365624  0.44442485    -0.85400
Zr9        Zr  0.25907398  0.19603636  0.49760654     2.84300
O10         O  0.23338077  0.22260071  0.53125506    -1.07400
O11         O  0.28468113  0.22178015  0.46275225    -1.08100
C12         C  0.25952192  0.17985136  0.41337059     1.07300
C13         C  0.26081186  0.18221438  0.58214227     1.07200
C14         C  0.32416851  0.18239477  0.49680104     1.10200
C15         C  0.19352470  0.18256962  0.50082968     1.08000
H16         H  0.29571677  0.21200233  0.54463248     0.33600
O17         O  0.28470039  0.22271805  0.53103267    -1.28400
H18         H  0.22284899  0.21029275  0.44941828     0.33200
O19         O  0.23373460  0.22159544  0.46248561    -1.30000
O20         O  0.25975075  0.29352528  0.59012345    -0.85800
O21         O  0.25937766  0.29136695  0.40042783    -0.87300
O22         O  0.33148822  0.24943911  0.54915588    -0.85900
O23         O  0.18681571  0.24896193  0.54962395    -0.85900
O24         O  0.18680440  0.24643741  0.44294955    -0.85600
O25         O  0.33180930  0.24633802  0.44326045    -0.85500
O26         O  0.30055443  0.32228385  0.49620376    -0.85800
O27         O  0.21773140  0.32188064  0.49463109    -0.85300
O28         O  0.33154236  0.29062463  0.49643786    -0.86400
O29         O  0.18659436  0.29031029  0.49540195    -0.85500
O30         O  0.30193105  0.25005988  0.59141162    -0.85900
O31         O  0.30268864  0.24555549  0.40091517    -0.85600
O32         O  0.21683068  0.24724311  0.40102812    -0.85300
O33         O  0.21624515  0.24969523  0.59171019    -0.85700
O34         O  0.25981265  0.32353041  0.54786753    -0.86000
O35         O  0.26015285  0.32227055  0.44185828    -0.87300
Zr36       Zr  0.25906838  0.24947361  0.56507666     2.83100
Zr37       Zr  0.25955866  0.24763212  0.42727165     2.83500
Zr38       Zr  0.30992492  0.24858982  0.49616883     2.84100
Zr39       Zr  0.20829503  0.24834340  0.49619955     2.83400
Zr40       Zr  0.25923410  0.30052357  0.49513629     2.84200
O41         O  0.23359910  0.27423737  0.46126226    -1.07900
O42         O  0.28476170  0.27526005  0.52999990    -1.07400
C43         C  0.26001546  0.31732315  0.57890183     1.07300
C44         C  0.26004093  0.31540282  0.41108775     1.09900
C45         C  0.32534453  0.24961275  0.58014209     1.07400
C46         C  0.19287112  0.24946549  0.58061301     1.07800
C47         C  0.19338845  0.24642396  0.41205302     1.07400
C48         C  0.32603474  0.24521313  0.41226791     1.06900
C49         C  0.32414494  0.31471113  0.49673826     1.07400
C50         C  0.19409593  0.31438534  0.49521332     1.06900
H51         H  0.29624230  0.28526477  0.44750894     0.33500
O52         O  0.28517284  0.27446599  0.46109046    -1.29000
H53         H  0.22254634  0.28639823  0.54326059     0.33600
O54         O  0.23342086  0.27514912  0.53000764    -1.30400
N55         N  0.47066867  0.49718818  0.50194179    -0.35900
N56         N  0.00980239  0.45936821  0.50906183    -0.56500
N57         N  0.04935286  0.49883437  0.51107248    -0.35900
N58         N  0.00953839  0.03828034  0.51766460    -0.56500
C59         C  0.45710861  0.47585739  0.49290081     0.27700
C60         C  0.45604362  0.02087112  0.51502438     0.27700
C61         C  0.06356912  0.47734446  0.50444380     0.27600
C62         C  0.06334321  0.01883680  0.51256306     0.27600
C63         C  0.48874692  0.44196444  0.50872913     0.36300
C64         C  0.03015184  0.44398421  0.51589877     0.36300
C65         C  0.48947401  0.05590437  0.51856585     0.36300
C66         C  0.03047799  0.05358108  0.52100500     0.36300
C67         C  0.43449173  0.48345153  0.47762402    -0.21200
C68         C  0.43157506  0.01243786  0.50658766    -0.21200
C69         C  0.08756515  0.48476263  0.49264926    -0.21200
C70         C  0.08766445  0.01062326  0.50306062    -0.21200
C71         C  0.49575868  0.41706054  0.51886427    -0.22300
C72         C  0.02199406  0.41939418  0.52588955    -0.22300
C73         C  0.49708987  0.08172297  0.52281932    -0.22300
C74         C  0.02337901  0.07902668  0.52866510    -0.22300
C75         C  0.46360098  0.44988232  0.50086733    -0.17600
C76         C  0.46371781  0.04746853  0.51606103    -0.17600
C77         C  0.05587248  0.04525885  0.51548582    -0.17600
C78         C  0.05592250  0.45130234  0.51051751    -0.17600
H79         H  0.41942779  0.47090456  0.46818184     0.15300
H80         H  0.41542986  0.02428370  0.49895156     0.15300
H81         H  0.10333641  0.47217229  0.48542381     0.15300
H82         H  0.10379385  0.02269407  0.49565058     0.15300
H83         H  0.48328656  0.40050211  0.52356513     0.13600
H84         H  0.03379691  0.40278715  0.53251126     0.13600
H85         H  0.48499109  0.09874435  0.52616814     0.13600
H86         H  0.03581917  0.09574972  0.53241689     0.13600
H87         H  0.48648928  0.49730274  0.51759116     0.26800
H88         H  0.03194263  0.49927661  0.52375845     0.26800
O89         O  0.48768507  0.45349515  0.90255393    -0.85800
O90         O  0.48940979  0.45505240  0.09227993    -0.86000
O91         O  0.02733580  0.42627444  0.99644184    -0.87700
O92         O  0.44666463  0.42410206  0.00005131    -0.86400
O93         O  0.41619961  0.45627828  0.00024987    -0.86000
O94         O  0.05850803  0.45781385  0.99650499    -0.87400
O95         O  0.48874457  0.42415943  0.05086692    -0.85800
O96         O  0.48806297  0.42356374  0.94484567    -0.85400
Zr97       Zr  0.48814398  0.44605460  0.99766021     2.84300
O98         O  0.46242158  0.47211201  0.03189030    -1.07400
O99         O  0.01155665  0.47384964  0.96309952    -1.08100
C100        C  0.48788577  0.42970555  0.91383468     1.07300
C101        C  0.48936684  0.43105529  0.08162613     1.07200
C102        C  0.05099515  0.43376108  0.99636339     1.10200
C103        C  0.42316530  0.43214657  0.00102726     1.08000
H104        H  0.02410213  0.46275144  0.04458087     0.33600
O105        O  0.01306665  0.47380779  0.03151193    -1.28400
H106        H  0.45116356  0.46017221  0.95030172     0.33200
O107        O  0.46213266  0.47142985  0.96326862    -1.30000
O108        O  0.48691448  0.04046002  0.09356255    -0.85800
O109        O  0.48671866  0.04571046  0.90303108    -0.87300
O110        O  0.06029375  0.50093896  0.04837767    -0.85900
O111        O  0.41559874  0.49907015  0.05101360    -0.85900
O112        O  0.41505446  0.49724645  0.94431571    -0.85600
O113        O  0.05891979  0.49639745  0.94353718    -0.85500
O114        O  0.03128591  0.07182350  0.99813138    -0.85800
O115        O  0.44523860  0.07349897  0.00067070    -0.85300
O116        O  0.06192092  0.03975443  0.99868431    -0.86400
O117        O  0.41437413  0.04165262  0.99896308    -0.85500
O118        O  0.03135133  0.50012975  0.09138339    -0.85900
O119        O  0.03228106  0.99732258  0.90422131    -0.85600
O120        O  0.44528895  0.00138925  0.90108140    -0.85300
O121        O  0.44550217  0.49904695  0.09256276    -0.85700
O122        O  0.48568458  0.07202549  0.05307825    -0.86000
O123        O  0.48550091  0.07485406  0.94628180    -0.87300
Zr124      Zr  0.48831640  0.49862266  0.06566951     2.83100
Zr125      Zr  0.48756448  0.49747856  0.92803517     2.83500
Zr126      Zr  0.03749085  0.50004351  0.99630510     2.84100
Zr127      Zr  0.43719250  0.49821097  0.99745658     2.83400
Zr128      Zr  0.48698408  0.05183274  0.99855824     2.84200
O129        O  0.46157838  0.02659428  0.96315873    -1.07900
O130        O  0.01437521  0.02503697  0.03256170    -1.07400
C131        C  0.48576525  0.06460711  0.08367258     1.07300
C132        C  0.48584478  0.06930850  0.91508609     1.09900
C133        C  0.05446578  0.50081267  0.07946004     1.07400
C134        C  0.42198363  0.49930602  0.08193794     1.07800
C135        C  0.42182443  0.00144116  0.91189762     1.07400
C136        C  0.05562312  0.99608263  0.91532598     1.06900
C137        C  0.05490967  0.06390689  0.99873558     1.07400
C138        C  0.42156964  0.06582428  0.00065434     1.06900
H139        H  0.02574269  0.03508720  0.95040647     0.33500
O140        O  0.01487473  0.02424527  0.96416532    -1.29000
H141        H  0.45073820  0.03525210  0.04552623     0.33600
O142        O  0.46162998  0.02464037  0.03153874    -1.30400
N143        N  0.19776393  0.25054720  0.00841556    -0.35900
N144        N  0.23778759  0.21141078  0.01413520    -0.56500
N145        N  0.27604233  0.25208164  0.01498122    -0.35900
N146        N  0.23601211  0.29135163  0.00628347    -0.56500
C147        C  0.18442660  0.22855121  0.00141184     0.27700
C148        C  0.18355657  0.27100269  0.99783500     0.27700
C149        C  0.29096391  0.23087635  0.00930425     0.27600
C150        C  0.28986514  0.27326882  0.00588164     0.27600
C151        C  0.21707635  0.19598336  0.01896163     0.36300
C152        C  0.25852328  0.19676744  0.02165713     0.36300
C153        C  0.21481411  0.30626369  0.00978832     0.36300
C154        C  0.25614172  0.30704591  0.01303848     0.36300
C155        C  0.16143674  0.23509328  0.98625131    -0.21200
C156        C  0.16088792  0.26195749  0.98400166    -0.21200
C157        C  0.31460121  0.23872371  0.99682254    -0.21200
C158        C  0.31391834  0.26553609  0.99469551    -0.21200
C159        C  0.22465846  0.17144968  0.02985096    -0.22300
C160        C  0.25099687  0.17193360  0.03146616    -0.22300
C161        C  0.22148561  0.33158479  0.01872851    -0.22300
C162        C  0.24779482  0.33209309  0.02070762    -0.22300
C163        C  0.19177349  0.20291154  0.01028808    -0.17600
C164        C  0.18974815  0.29760281  0.00271788    -0.17600
C165        C  0.28195534  0.29947143  0.00953291    -0.17600
C166        C  0.28410968  0.20472148  0.01620717    -0.17600
H167        H  0.14646635  0.22189982  0.97805663     0.15300
H168        H  0.14542833  0.27353410  0.97377553     0.15300
H169        H  0.33070483  0.22642838  0.99002265     0.15300
H170        H  0.32941500  0.27794519  0.98603501     0.15300
H171        H  0.21254170  0.15471740  0.03509294     0.13600
H172        H  0.26323765  0.15569307  0.03821536     0.13600
H173        H  0.20878200  0.34802915  0.02292445     0.13600
H174        H  0.25945957  0.34900155  0.02663366     0.13600
H175        H  0.21399653  0.25168787  0.02327107     0.26800
H176        H  0.25859644  0.25239666  0.02764145     0.26800
C177        C  0.03255530  0.25069108  0.26961641     0.87200
C178        C  0.03019987  0.22664468  0.24698485    -0.53100
C179        C  0.51150270  0.22464078  0.22642643     0.10100
C180        C  0.49301737  0.24777886  0.23387198     0.21000
C181        C  0.03090676  0.27424569  0.24627759    -0.53800
C182        C  0.50984812  0.27277188  0.23017591     0.10200
C183        C  0.50893227  0.24508197  0.29043425    -0.53300
C184        C  0.48732623  0.24513923  0.27142739     0.10800
H185        H  0.04374421  0.21051167  0.24775550     0.15300
H186        H  0.47557047  0.24776657  0.21822394     0.01000
H187        H  0.04522991  0.28971504  0.24632171     0.15600
H188        H  0.50769388  0.24236145  0.31700564     0.15400
C189        C  0.21460690  0.49830943  0.22204233     0.87200
C190        C  0.21596576  0.47558813  0.24671571    -0.53100
C191        C  0.23708015  0.47570165  0.26688615     0.10100
C192        C  0.25499232  0.49950394  0.26058834     0.21000
C193        C  0.21694529  0.02017055  0.24537665    -0.53800
C194        C  0.23860451  0.02152641  0.26450102     0.10200
C195        C  0.24051027  0.49723703  0.20334367    -0.53300
C196        C  0.26160882  0.49778912  0.22336712     0.10800
H197        H  0.20178800  0.45998666  0.24685568     0.15300
H198        H  0.27213829  0.50040654  0.27674293     0.01000
H199        H  0.20200692  0.03496840  0.24582123     0.15600
H200        H  0.24268247  0.49681076  0.17666469     0.15400
C201        C  0.03299482  0.24690914  0.72843831     0.87200
C202        C  0.03073124  0.27131771  0.75041469    -0.53100
C203        C  0.50707928  0.27386258  0.76220775     0.10100
C204        C  0.48951429  0.24984518  0.75690600     0.21000
C205        C  0.02914149  0.22375810  0.75238059    -0.53800
C206        C  0.50667413  0.22619565  0.76537734     0.10200
C207        C  0.50827938  0.24709807  0.70144024    -0.53300
C208        C  0.48578001  0.24808092  0.71908599     0.10800
H209        H  0.04519357  0.28658955  0.74980347     0.15300
H210        H  0.47129527  0.25054365  0.77130294     0.01000
H211        H  0.04166141  0.20696983  0.75357560     0.15600
H212        H  0.50879786  0.24584998  0.67456619     0.15400
C213        C  0.21570868  0.49662217  0.77380907     0.87200
C214        C  0.22115622  0.02566446  0.75229748    -0.53100
C215        C  0.24213527  0.02536216  0.73180542     0.10100
C216        C  0.25639204  0.49736713  0.73511954     0.21000
C217        C  0.21750652  0.47331495  0.74977322    -0.53800
C218        C  0.23869051  0.47349466  0.72968434     0.10200
C219        C  0.24162752  0.49596413  0.79238733    -0.53300
C220        C  0.26283809  0.49622350  0.77223177     0.10800
H221        H  0.20819414  0.04227844  0.75383919     0.15300
H222        H  0.27352653  0.49761906  0.71861978     0.01000
H223        H  0.20354866  0.45749126  0.74943799     0.15600
H224        H  0.24375454  0.49468587  0.81897286     0.15400
C225        C  0.11673839  0.01951812  0.12313927    -0.27500
C226        C  0.12016276  0.49903733  0.14367450     0.06100
C227        C  0.09697626  0.48703360  0.15360574     0.25700
C228        C  0.07522833  0.48836806  0.13325837    -0.12000
C229        C  0.07637659  0.50142309  0.10264854    -0.26000
C230        C  0.09507630  0.02031104  0.10296575     0.36500
C231        C  0.14390689  0.49720191  0.16385025     0.06100
F232        F  0.09560711  0.47316245  0.18223766    -0.19800
H233        H  0.05779603  0.47841061  0.14086432     0.15900
F234        F  0.09369922  0.03868730  0.07872607    -0.23500
H235        H  0.13186154  0.03376414  0.11915557     0.17700
C236        C  0.16757881  0.49114550  0.14878370     0.25700
C237        C  0.19021794  0.49125632  0.16722264    -0.12000
C238        C  0.18999534  0.49744265  0.20130333    -0.26000
C239        C  0.16593054  0.50216792  0.21659613     0.36600
C240        C  0.14331170  0.50237793  0.19797986    -0.27700
F241        F  0.16883913  0.48467482  0.11615085    -0.19800
H242        H  0.20761753  0.99840275  0.15247797     0.15900
F243        F  0.16426047  0.50704729  0.24962094    -0.23500
H244        H  0.12535254  0.50713263  0.21020883     0.17700
C245        C  0.38263598  0.50089163  0.16284256    -0.27500
C246        C  0.35743835  0.49884180  0.15063973     0.06100
C247        C  0.35332587  0.99988409  0.11507077     0.25700
C248        C  0.37417779  0.99788661  0.09343982    -0.12000
C249        C  0.40017854  0.49982389  0.10636658    -0.26000
C250        C  0.40384788  0.50138734  0.14101469     0.36500
C251        C  0.33480778  0.49664824  0.17330469     0.06100
F252        F  0.32917838  0.99732370  0.10285640    -0.19800
H253        H  0.37022166  0.99469686  0.06741092     0.15900
F254        F  0.42780108  0.50331998  0.15391490    -0.23500
H255        H  0.38591494  0.50158434  0.18932450     0.17700
C256        C  0.31672036  0.47650046  0.16856521     0.25700
C257        C  0.29356359  0.47647164  0.18613787    -0.12000
C258        C  0.28799011  0.49620413  0.20926939    -0.26000
C259        C  0.29270499  0.02251223  0.18463578     0.36600
C260        C  0.31580716  0.02380438  0.16694896    -0.27700
F261        F  0.32118342  0.45710421  0.14624921    -0.19800
H262        H  0.27956785  0.46129239  0.18104728     0.15900
F263        F  0.27432973  0.04080703  0.17897656    -0.23500
H264        H  0.31847709  0.03909793  0.14866515     0.17700
C265        C  0.00443652  0.39057890  0.15573200    -0.27500
C266        C  0.49541062  0.36472896  0.14719249     0.06100
C267        C  0.48036508  0.36353819  0.11844506     0.25700
C268        C  0.47794536  0.38546288  0.09802659    -0.12000
C269        C  0.49028353  0.40919577  0.10584467    -0.26000
C270        C  0.00199632  0.41302230  0.13603865     0.36500
C271        C  0.49891879  0.34097863  0.16795071     0.06100
F272        F  0.46885898  0.34079732  0.10934466    -0.19800
H273        H  0.46661941  0.38374959  0.07565305     0.15900
F274        F  0.01460929  0.43519623  0.14496894    -0.23500
H275        H  0.01595898  0.39143094  0.17800897     0.17700
C276        C  0.02156530  0.33250391  0.16921856     0.25700
C277        C  0.02540807  0.30981183  0.18786629    -0.12000
C278        C  0.50535872  0.29521483  0.20694532    -0.26000
C279        C  0.48061941  0.30476550  0.19983276     0.36600
C280        C  0.47751991  0.32740287  0.18058091    -0.27700
F281        F  0.04196760  0.34418612  0.15423559    -0.19800
H282        H  0.04477776  0.30239503  0.19035339     0.15900
F283        F  0.45938063  0.29290600  0.21209112    -0.23500
H284        H  0.45831283  0.33459111  0.17586223     0.17700
C285        C  0.51893026  0.16499083  0.16988581    -0.27500
C286        C  0.49357725  0.15585029  0.16770442     0.06100
C287        C  0.97291375  0.17172666  0.18327456     0.25700
C288        C  0.97801571  0.19440850  0.20187514    -0.12000
C289        C  0.50522520  0.20216072  0.20380503    -0.26000
C290        C  0.52471165  0.18806133  0.18713851     0.36500
C291        C  0.48818143  0.13123816  0.14917872     0.06100
F292        F  0.94844572  0.16269131  0.18121949    -0.19800
H293        H  0.96238745  0.20391122  0.21496282     0.15900
F294        F  0.54936130  0.19671446  0.18695328    -0.23500
H295        H  0.53431998  0.15433062  0.15777681     0.17700
C296        C  0.47333105  0.13170270  0.12022730     0.25700
C297        C  0.47163877  0.10944967  0.10012554    -0.12000
C298        C  0.48442813  0.08610227  0.10854455    -0.26000
C299        C  0.99499749  0.08763878  0.13840069     0.36600
C300        C  0.99585439  0.10975572  0.15911753    -0.27700
F301        F  0.46183075  0.15415349  0.11019850    -0.19800
H302        H  0.46094864  0.11077284  0.07719529     0.15900
F303        F  0.00304874  0.06427466  0.15046417    -0.23500
H304        H  0.00296341  0.10774758  0.18418387     0.17700
C305        C  0.08435685  0.36777549  0.99693587    -0.27500
C306        C  0.11013438  0.37539226  0.99918309     0.06100
C307        C  0.11646596  0.40205998  0.00007395     0.25700
C308        C  0.09713838  0.42085800  0.99891660    -0.12000
C309        C  0.07115505  0.41340328  0.99670594    -0.26000
C310        C  0.06495593  0.38652567  0.99552062     0.36500
C311        C  0.13035050  0.35537094  0.00000126     0.06100
F312        F  0.14129795  0.40990593  0.00273865    -0.19800
H313        H  0.10262603  0.44129575  0.99998444     0.15900
F314        F  0.04028119  0.37819917  0.99281664    -0.23500
H315        H  0.07929881  0.34721468  0.99586199     0.17700
C316        C  0.13049290  0.33625739  0.02499218     0.25700
C317        C  0.14976623  0.31733491  0.02547016    -0.12000
C318        C  0.16891670  0.31716984  0.00093909    -0.26000
C319        C  0.16848706  0.33595820  0.97556034     0.36600
C320        C  0.14938313  0.35507508  0.97529529    -0.27700
F321        F  0.11233970  0.33627739  0.04925848    -0.19800
H322        H  0.14997436  0.30293173  0.04516064     0.15900
F323        F  0.18643875  0.33567847  0.95106532    -0.23500
H324        H  0.14922303  0.36949239  0.95561693     0.17700
C325        C  0.35711672  0.40162297  0.00823024    -0.27500
C326        C  0.36295165  0.37509682  0.00497934     0.06100
C327        C  0.38850051  0.36704490  0.00100830     0.25700
C328        C  0.40812985  0.38564013  0.99990089    -0.12000
C329        C  0.40243453  0.41245220  0.00297559    -0.26000
C330        C  0.37660238  0.42023001  0.00754753     0.36500
C331        C  0.34213103  0.35595149  0.00623953     0.06100
F332        F  0.39432027  0.34127217  0.99771706    -0.19800
H333        H  0.42771682  0.37903177  0.99640618     0.15900
F334        F  0.36997188  0.44573392  0.01165139    -0.23500
H335        H  0.33739543  0.40787821  0.01165807     0.17700
C336        C  0.33918406  0.33982809  0.03407425     0.25700
C337        C  0.31908512  0.32186632  0.03533688    -0.12000
C338        C  0.30191650  0.31986262  0.00880387    -0.26000
C339        C  0.30478478  0.33609389  0.98098801     0.36600
C340        C  0.32476736  0.35424750  0.97987704    -0.27700
F341        F  0.35563007  0.34166609  0.05999771    -0.19800
H342        H  0.31701131  0.30927636  0.05677932     0.15900
F343        F  0.28869881  0.33384499  0.95473270    -0.23500
H344        H  0.32696902  0.36672277  0.95834260     0.17700
C345        C  0.34249114  0.16343870  0.03623079    -0.27500
C346        C  0.34324033  0.14636807  0.00889947     0.06100
C347        C  0.32452858  0.14872771  0.98402816     0.25700
C348        C  0.30520856  0.16756018  0.98682815    -0.12000
C349        C  0.30435421  0.18439169  0.01427953    -0.26000
C350        C  0.32323224  0.18240872  0.03889560     0.36500
C351        C  0.36329186  0.12589333  0.00673016     0.06100
F352        F  0.32531161  0.13325398  0.95666966    -0.19800
H353        H  0.29100029  0.16925399  0.96740081     0.15900
F354        F  0.32292203  0.19873381  0.06546656    -0.23500
H355        H  0.35670159  0.16186847  0.05566274     0.17700
C356        C  0.38945457  0.13243016  0.00835400     0.25700
C357        C  0.40819040  0.11287364  0.00633155    -0.12000
C358        C  0.40126049  0.08632617  0.00292844    -0.26000
C359        C  0.37487104  0.07987661  0.00189244     0.36600
C360        C  0.35621578  0.09952613  0.00350903    -0.27700
F361        F  0.39690193  0.15780537  0.01121245    -0.19800
H362        H  0.42819416  0.11862919  0.00741865     0.15900
F363        F  0.36688989  0.05464668  0.99948436    -0.23500
H364        H  0.33610067  0.09410645  0.00270748     0.17700
C365        C  0.15361798  0.14395851  0.98239855    -0.27500
C366        C  0.13461508  0.14258560  0.00713826     0.06100
C367        C  0.13479461  0.16086604  0.03323924     0.25700
C368        C  0.15342926  0.18052010  0.03409096    -0.12000
C369        C  0.17214031  0.18203639  0.00911243    -0.26000
C370        C  0.17221541  0.16365293  0.98324828     0.36500
C371        C  0.11431616  0.12246702  0.00503537     0.06100
F372        F  0.11717966  0.15946393  0.05808422    -0.19800
H373        H  0.15338093  0.19452995  0.05427254     0.15900
F374        F  0.19004516  0.16508088  0.95866070    -0.23500
H375        H  0.15368286  0.13009196  0.96206132     0.17700
C376        C  0.08830946  0.12968138  0.00483751     0.25700
C377        C  0.06918979  0.11061653  0.00237677    -0.12000
C378        C  0.07558866  0.08393812  0.00009522    -0.26000
C379        C  0.10185558  0.07680314  0.00001177     0.36600
C380        C  0.12091465  0.09597323  0.00234564    -0.27700
F381        F  0.08140547  0.15526614  0.00631547    -0.19800
H382        H  0.04931513  0.11684462  0.00239909     0.15900
F383        F  0.10933346  0.05139760  0.99777063    -0.23500
H384        H  0.14091598  0.09011685  0.00233673     0.17700
C385        C  0.33335576  0.01249492  0.79494217    -0.27500
C386        C  0.33626518  0.49047378  0.82015662     0.06100
C387        C  0.31676943  0.47207373  0.82643826     0.25700
C388        C  0.29352166  0.47337272  0.80943838    -0.12000
C389        C  0.28915921  0.49297927  0.78577464    -0.26000
C390        C  0.31025246  0.01287016  0.77725564     0.36500
C391        C  0.35848833  0.49239738  0.84302925     0.06100
F392        F  0.31986494  0.45341737  0.85001364    -0.19800
H393        H  0.27848545  0.45950198  0.81558117     0.15900
F394        F  0.30620584  0.03211297  0.75471435    -0.23500
H395        H  0.34774664  0.02734015  0.79004572     0.17700
C396        C  0.38408610  0.98939683  0.83285062     0.25700
C397        C  0.40463784  0.99159438  0.85504887    -0.12000
C398        C  0.40064148  0.00125736  0.88737658    -0.26000
C399        C  0.37393296  0.49874520  0.89938429     0.36600
C400        C  0.35377967  0.49700549  0.87675663    -0.27700
F401        F  0.38822862  0.97943365  0.80209210    -0.19800
H402        H  0.42351626  0.98510749  0.84723444     0.15900
F403        F  0.36793363  0.50375542  0.93155342    -0.23500
H404        H  0.33425143  0.49947745  0.88562764     0.17700
C405        C  0.14387812  0.49419648  0.79669158    -0.27500
C406        C  0.14683205  0.99959727  0.83261704     0.06100
C407        C  0.17085304  0.99779872  0.84826648     0.25700
C408        C  0.19359786  0.99853786  0.82970585    -0.12000
C409        C  0.19089722  0.49594571  0.79473036    -0.26000
C410        C  0.16686687  0.49535873  0.77857977     0.36500
C411        C  0.12247774  0.99785289  0.85219102     0.06100
F412        F  0.17248302  0.99571419  0.88175580    -0.19800
H413        H  0.21114510  0.99682399  0.84347437     0.15900
F414        F  0.16557553  0.49566889  0.74498392    -0.23500
H415        H  0.12588013  0.49335676  0.78337235     0.17700
C416        C  0.09877478  0.50988038  0.84276678     0.25700
C417        C  0.07607589  0.50965348  0.86170949    -0.12000
C418        C  0.07728801  0.99519500  0.89147939    -0.26000
C419        C  0.09734085  0.97712064  0.89608090     0.36600
C420        C  0.11948192  0.97826698  0.87636917    -0.27700
F421        F  0.10124991  0.52779081  0.81815510    -0.19800
H422        H  0.06106047  0.52363190  0.85620958     0.15900
F423        F  0.09557762  0.95841964  0.91989921    -0.23500
H424        H  0.13445323  0.96389745  0.88023924     0.17700
C425        C  0.47333199  0.16926440  0.80827214    -0.27500
C426        C  0.49254322  0.16089830  0.83021028     0.06100
C427        C  0.01554717  0.16680221  0.82900256     0.25700
C428        C  0.02042678  0.18949896  0.81077823    -0.12000
C429        C  0.50043739  0.20533075  0.78973796    -0.26000
C430        C  0.47713577  0.19146230  0.78832808     0.36500
C431        C  0.48867930  0.13749355  0.85141963     0.06100
F432        F  0.03548683  0.15415209  0.84349055    -0.19800
H433        H  0.04009312  0.19626726  0.80890220     0.15900
F434        F  0.45863142  0.19853884  0.76654263    -0.23500
H435        H  0.45543855  0.15852781  0.80654459     0.17700
C436        C  0.49015393  0.13985545  0.88595991     0.25700
C437        C  0.48872818  0.11769737  0.90602984    -0.12000
C438        C  0.48581113  0.09241804  0.89233246    -0.26000
C439        C  0.99665046  0.08625950  0.85914071     0.36600
C440        C  0.99815554  0.10915880  0.84003062    -0.27700
F441        F  0.49309535  0.16370874  0.90035864    -0.19800
H442        H  0.49039769  0.12050530  0.93254446     0.15900
F443        F  0.00980497  0.06470588  0.84916603    -0.23500
H444        H  0.00971358  0.10911955  0.81763781     0.17700
C445        C  0.48790477  0.38868401  0.83426974    -0.27500
C446        C  0.48937681  0.36326679  0.84732807     0.06100
C447        C  0.97130292  0.36580389  0.87773072     0.25700
C448        C  0.96918724  0.38836672  0.89728972    -0.12000
C449        C  0.48793220  0.40721576  0.89014187    -0.26000
C450        C  0.48726064  0.41055994  0.85541258     0.36500
C451        C  0.49317735  0.34038700  0.82541979     0.06100
F452        F  0.95752913  0.34428702  0.88640350    -0.19800
H453        H  0.95637306  0.38812379  0.91853100     0.15900
F454        F  0.48640145  0.43481260  0.84178542    -0.23500
H455        H  0.48797580  0.39158752  0.80767335     0.17700
C456        C  0.47315572  0.33013296  0.80605294     0.25700
C457        C  0.47735707  0.30786820  0.78628184    -0.12000
C458        C  0.50166088  0.29591076  0.78528638    -0.26000
C459        C  0.02369994  0.30970630  0.80720863     0.36600
C460        C  0.01851547  0.33198146  0.82626651    -0.27700
F461        F  0.44958933  0.34146312  0.80660446    -0.19800
H462        H  0.46183670  0.30034869  0.77124363     0.15900
F463        F  0.04855708  0.30210567  0.80415635    -0.23500
H464        H  0.03444194  0.34260594  0.83707941     0.17700
C465        C  0.42313269  0.27040937  0.68070924    -0.27500
C466        C  0.41268809  0.24667069  0.66947742     0.06100
C467        C  0.42603168  0.22323280  0.67573250     0.25700
C468        C  0.44961421  0.22371900  0.69241815    -0.12000
C469        C  0.46023990  0.24753700  0.70301342    -0.26000
C470        C  0.44679010  0.27088173  0.69718884     0.36500
C471        C  0.38970785  0.24682083  0.64778814     0.06100
F472        F  0.41638677  0.19995636  0.66526757    -0.19800
H473        H  0.45980743  0.20555636  0.69663982     0.15900
F474        F  0.45708721  0.29422276  0.70616649    -0.23500
H475        H  0.41344095  0.28869231  0.67550121     0.17700
C476        C  0.36553527  0.25553114  0.65900911     0.25700
C477        C  0.34443970  0.25613273  0.63728795    -0.12000
C478        C  0.34730179  0.24865894  0.60384867    -0.26000
C479        C  0.37180909  0.24025852  0.59286123     0.36600
C480        C  0.39249762  0.23915428  0.61467983    -0.27700
F481        F  0.36232069  0.26322265  0.69096630    -0.19800
H482        H  0.32600271  0.26280505  0.64649689     0.15900
F483        F  0.37601088  0.23288728  0.56094189    -0.23500
H484        H  0.41103204  0.23271303  0.60547757     0.17700
C485        C  0.15206219  0.24762161  0.66001944    -0.27500
C486        C  0.12707516  0.24984937  0.64701740     0.06100
C487        C  0.12418559  0.25212871  0.61256348     0.25700
C488        C  0.14562508  0.25225072  0.59172775    -0.12000
C489        C  0.17073898  0.24991017  0.60438255    -0.26000
C490        C  0.17372399  0.24765933  0.63901560     0.36500
C491        C  0.10393089  0.24944474  0.66896369     0.06100
F492        F  0.10047845  0.25342220  0.59877011    -0.19800
H493        H  0.14231819  0.25398266  0.56533663     0.15900
F494        F  0.19739239  0.24525023  0.65264982    -0.23500
H495        H  0.15482092  0.24599915  0.68653213     0.17700
C496        C  0.10036941  0.22962649  0.69261378     0.25700
C497        C  0.07781557  0.22855628  0.71165336    -0.12000
C498        C  0.05791120  0.24714561  0.70757128    -0.26000
C499        C  0.06199606  0.26733789  0.68422763     0.36600
C500        C  0.08460453  0.26839215  0.66529644    -0.27700
F501        F  0.11840833  0.21074522  0.69676395    -0.19800
H502        H  0.07667073  0.21303841  0.72958511     0.15900
F503        F  0.04408996  0.28629734  0.67979609    -0.23500
H504        H  0.08702999  0.28416642  0.64763467     0.17700
C505        C  0.25865035  0.06834074  0.65777294    -0.27500
C506        C  0.25894375  0.09355337  0.67206985     0.06100
C507        C  0.25549300  0.09570124  0.70665379     0.25700
C508        C  0.25042801  0.07344203  0.72586195    -0.12000
C509        C  0.24944356  0.04845136  0.71133769    -0.26000
C510        C  0.25436581  0.04599171  0.67724053     0.36500
C511        C  0.26130571  0.11740907  0.65068020     0.06100
F512        F  0.25713621  0.11929840  0.72201016    -0.19800
H513        H  0.24726518  0.07571103  0.75227057     0.15900
F514        F  0.25366644  0.02213880  0.66242989    -0.23500
H515        H  0.26082811  0.06591677  0.63125057     0.17700
C516        C  0.27846044  0.11820816  0.62355024     0.25700
C517        C  0.27854205  0.13962587  0.60189351    -0.12000
C518        C  0.26211518  0.16106256  0.60719471    -0.26000
C519        C  0.24590966  0.16098127  0.63510117     0.36600
C520        C  0.24527369  0.13923321  0.65627498    -0.27700
F521        F  0.29523053  0.09835145  0.61790794    -0.19800
H522        H  0.29145496  0.13943012  0.58074910     0.15900
F523        F  0.22959420  0.18121603  0.64081197    -0.23500
H524        H  0.23148390  0.13913137  0.67643060     0.17700
C525        C  0.27167231  0.41475369  0.69026722    -0.27500
C526        C  0.25304200  0.40651577  0.66745305     0.06100
C527        C  0.23022085  0.42093507  0.66436669     0.25700
C528        C  0.22588647  0.44294105  0.68428413    -0.12000
C529        C  0.24448871  0.45132312  0.70705315    -0.26000
C530        C  0.26755360  0.43714745  0.70978917     0.36500
C531        C  0.25746784  0.38336789  0.64605693     0.06100
F532        F  0.21202628  0.41351494  0.64224892    -0.19800
H533        H  0.20795227  0.45350891  0.68196182     0.15900
F534        F  0.28562411  0.44433850  0.73218197    -0.23500
H535        H  0.28940102  0.40387778  0.69284141     0.17700
C536        C  0.26369248  0.38677596  0.61252478     0.25700
C537        C  0.26509870  0.36519289  0.59127170    -0.12000
C538        C  0.26031643  0.33960575  0.60293420    -0.26000
C539        C  0.25503228  0.33618461  0.63702243     0.36600
C540        C  0.25359659  0.35794512  0.65829231    -0.27700
F541        F  0.26799876  0.41112586  0.60023742    -0.19800
H542        H  0.26961324  0.36867668  0.56541634     0.15900
F543        F  0.25037038  0.31203046  0.64967424    -0.23500
H544        H  0.24871126  0.35504023  0.68415798     0.17700
C545        C  0.39004854  0.15095349  0.49509504    -0.27500
C546        C  0.38396529  0.12470380  0.50135546     0.06100
C547        C  0.35808213  0.11726952  0.50469232     0.25700
C548        C  0.33870309  0.13603774  0.50283547    -0.12000
C549        C  0.34476017  0.16248853  0.49718913    -0.26000
C550        C  0.37072811  0.16967374  0.49266257     0.36500
C551        C  0.40470373  0.10530367  0.50515715     0.06100
F552        F  0.35152347  0.09180716  0.50937615    -0.19800
H553        H  0.31895785  0.12981655  0.50608302     0.15900
F554        F  0.37764459  0.19474630  0.48590608    -0.23500
H555        H  0.40988467  0.15708914  0.49259609     0.21500
C556        C  0.42466912  0.10347075  0.48166057     0.25700
C557        C  0.44374869  0.08457079  0.48529734    -0.12000
C558        C  0.44355321  0.06774089  0.51275982    -0.26000
C559        C  0.42405185  0.07005552  0.53670947     0.36600
C560        C  0.40471680  0.08862432  0.53279755    -0.27700
F561        F  0.42543865  0.11952424  0.45487068    -0.19800
H562        H  0.45870988  0.08296240  0.46665618     0.15900
F563        F  0.42372373  0.05427616  0.56376029    -0.23500
H564        H  0.38985118  0.09017974  0.55156557     0.17700
C565        C  0.12828354  0.14931691  0.49843511    -0.27500
C566        C  0.13470246  0.12370439  0.50749459     0.06100
C567        C  0.16037787  0.11747761  0.51443255     0.25700
C568        C  0.17936363  0.13668519  0.51217773    -0.12000
C569        C  0.17307803  0.16246727  0.50313464    -0.26000
C570        C  0.14716150  0.16864050  0.49646872     0.36500
C571        C  0.11448807  0.10360111  0.50954684     0.06100
F572        F  0.16716859  0.09268903  0.52272195    -0.19800
H573        H  0.19901915  0.13131894  0.51761207     0.15900
F574        F  0.13991872  0.19320092  0.48774093    -0.23500
H575        H  0.10851329  0.15440770  0.49317968     0.17700
C576        C  0.11098247  0.08903271  0.53875350     0.25700
C577        C  0.09188404  0.06998394  0.54040288    -0.12000
C578        C  0.07600767  0.06542024  0.51311535    -0.26000
C579        C  0.07920339  0.08006064  0.48399037     0.36600
C580        C  0.09838010  0.09910929  0.48227377    -0.27700
F581        F  0.12560742  0.09366400  0.56590450    -0.19800
H582        H  0.08929044  0.05886981  0.56303259     0.15900
F583        F  0.06391437  0.07575642  0.45733694    -0.23500
H584        H  0.10085353  0.11020788  0.45960979     0.17700
C585        C  0.09520291  0.39369242  0.48106725    -0.27500
C586        C  0.11526695  0.39345920  0.50420443     0.06100
C587        C  0.11562420  0.41227709  0.52971154     0.25700
C588        C  0.09591183  0.43068162  0.53216040    -0.12000
C589        C  0.07580519  0.43067724  0.50912483    -0.26000
C590        C  0.07557950  0.41210331  0.48349902     0.36500
C591        C  0.13547931  0.37332499  0.50163666     0.06100
F592        F  0.13473270  0.41261119  0.55251620    -0.19800
H593        H  0.09637393  0.44512266  0.55183912     0.15900
F594        F  0.05663668  0.41214907  0.46048325    -0.23500
H595        H  0.09487956  0.37972686  0.46084836     0.17700
C596        C  0.12889236  0.34682163  0.49783769     0.25700
C597        C  0.14802023  0.32787679  0.49516408    -0.12000
C598        C  0.17410902  0.33492276  0.49652257    -0.26000
C599        C  0.18064877  0.36157267  0.50039495     0.36600
C600        C  0.16145176  0.38050984  0.50273007    -0.27700
F601        F  0.10391924  0.33914353  0.49763931    -0.19800
H602        H  0.14229178  0.30760305  0.49245554     0.15900
F603        F  0.20550549  0.36946634  0.50244279    -0.23500
H604        H  0.16690260  0.40088046  0.50526407     0.17700
C605        C  0.35773368  0.38062586  0.49484073    -0.27500
C606        C  0.38313936  0.37318972  0.50082396     0.06100
C607        C  0.38911718  0.34679557  0.50606226     0.25700
C608        C  0.36983657  0.32791369  0.50468137    -0.12000
C609        C  0.34427220  0.33509397  0.49809241    -0.26000
C610        C  0.33837188  0.36179181  0.49331826     0.36500
C611        C  0.40352396  0.39296469  0.50061648     0.06100
F612        F  0.41357820  0.33937999  0.51281800    -0.19800
H613        H  0.37498461  0.30765917  0.50892362     0.15900
F614        F  0.31408339  0.36979471  0.48665341    -0.23500
H615        H  0.35301335  0.40101379  0.49071360     0.17700
C616        C  0.42249826  0.39250081  0.47580579     0.25700
C617        C  0.44215620  0.41103434  0.47599134    -0.12000
C618        C  0.44291994  0.43017395  0.50085097    -0.26000
C619        C  0.42368700  0.43092770  0.52534170     0.36600
C620        C  0.40403586  0.41236974  0.52516515    -0.27700
F621        F  0.42165980  0.37440383  0.45116720    -0.19800
H622        H  0.45672290  0.41060295  0.45674131     0.15900
F623        F  0.42410074  0.44952148  0.54941114    -0.23500
H624        H  0.38936446  0.41293177  0.54428275     0.17700
C625        C  0.10414475  0.24538923  0.29297029    -0.27500
C626        C  0.10368390  0.24903649  0.32745590     0.06100
C627        C  0.08011529  0.25502618  0.34284429     0.25700
C628        C  0.05740410  0.25585146  0.32449250    -0.12000
C629        C  0.05740161  0.25078811  0.29011223    -0.26000
C630        C  0.08142217  0.24649961  0.27444202     0.36500
C631        C  0.12763467  0.24668698  0.34739331     0.06100
F632        F  0.07905764  0.26075362  0.37569627    -0.19800
H633        H  0.04012520  0.26111802  0.33767332     0.15900
F634        F  0.08294446  0.24299592  0.24112232    -0.23500
H635        H  0.12210731  0.24125009  0.28038074     0.17700
C636        C  0.12788360  0.23156639  0.37652915     0.25700
C637        C  0.14963814  0.23104753  0.39664969    -0.12000
C638        C  0.17186858  0.24519186  0.38807682    -0.26000
C639        C  0.17219822  0.25926267  0.35810572     0.36600
C640        C  0.15022190  0.25999502  0.33799483    -0.27700
F641        F  0.10705193  0.21721489  0.38561747    -0.19800
H642        H  0.14900975  0.21967385  0.41930210     0.15900
F643        F  0.19316287  0.27345945  0.34920065    -0.23500
H644        H  0.15055321  0.27170920  0.31563596     0.17700
C645        C  0.43341864  0.22108510  0.32767246    -0.27500
C646        C  0.41449673  0.24032731  0.32293473     0.06100
C647        C  0.41904715  0.26008800  0.29934253     0.25700
C648        C  0.44221110  0.26076324  0.28142156    -0.12000
C649        C  0.46135405  0.24194012  0.28671916    -0.26000
C650        C  0.45656445  0.22180561  0.30982401     0.36500
C651        C  0.39140941  0.24101299  0.34496608     0.06100
F652        F  0.40190284  0.27979779  0.29528479    -0.19800
H653        H  0.44576982  0.27697059  0.26494390     0.15900
F654        F  0.47450254  0.20310809  0.31568897    -0.23500
H655        H  0.43044530  0.20572547  0.34579088     0.17700
C656        C  0.36620983  0.24207200  0.33241888     0.25700
C657        C  0.34494477  0.24318924  0.35410712    -0.12000
C658        C  0.34838961  0.24347112  0.38874403    -0.26000
C659        C  0.37385756  0.24219290  0.40098677     0.36600
C660        C  0.39483264  0.24090782  0.37936557    -0.27700
F661        F  0.36214900  0.24157606  0.29922146    -0.19800
H662        H  0.32580905  0.24396327  0.34374454     0.15900
F663        F  0.37887176  0.24231811  0.43399640    -0.23500
H664        H  0.41401806  0.24023284  0.38964696     0.17700
C665        C  0.27188840  0.42172310  0.31477951    -0.27500
C666        C  0.25115679  0.40732853  0.32782949     0.06100
C667        C  0.22612151  0.41680785  0.32303963     0.25700
C668        C  0.22191881  0.43957061  0.30458477    -0.12000
C669        C  0.24249488  0.45341346  0.29002251    -0.26000
C670        C  0.26768852  0.44437469  0.29581073     0.36500
C671        C  0.25558131  0.38270771  0.34680435     0.06100
F672        F  0.20565584  0.40418975  0.33656612    -0.19800
H673        H  0.20234757  0.44625723  0.30152772     0.15900
F674        F  0.28825013  0.45639130  0.28174296    -0.23500
H675        H  0.29136819  0.41488314  0.31834525     0.17700
C676        C  0.24297998  0.35920840  0.33825200     0.25700
C677        C  0.24552133  0.33676226  0.35809744    -0.12000
C678        C  0.26053386  0.33740787  0.38692804    -0.26000
C679        C  0.27417781  0.36056534  0.39442514     0.36600
C680        C  0.27176959  0.38285009  0.37449534    -0.27700
F681        F  0.22801217  0.35806353  0.31082618    -0.19800
H682        H  0.23489914  0.31924448  0.35169359     0.15900
F683        F  0.28962589  0.36179232  0.42141916    -0.23500
H684        H  0.28188877  0.40056769  0.38138425     0.17700
C685        C  0.26549124  0.06664611  0.33178573    -0.27500
C686        C  0.25448480  0.09086240  0.32329439     0.06100
C687        C  0.23952877  0.09233999  0.29446063     0.25700
C688        C  0.23521683  0.06999767  0.27524253    -0.12000
C689        C  0.24494892  0.04533603  0.28468686    -0.26000
C690        C  0.26051867  0.04406028  0.31314673     0.36500
C691        C  0.25690018  0.11378792  0.34598186     0.06100
F692        F  0.22797644  0.11508090  0.28560865    -0.19800
H693        H  0.22392760  0.07219157  0.25297613     0.15900
F694        F  0.26993736  0.02096134  0.32425117    -0.23500
H695        H  0.27739573  0.06501125  0.35363753     0.17700
C696        C  0.25249912  0.11069815  0.38014358     0.25700
C697        C  0.25371362  0.13216085  0.40146720    -0.12000
C698        C  0.25902235  0.15750279  0.38949506    -0.26000
C699        C  0.26344055  0.16068786  0.35520076     0.36600
C700        C  0.26250430  0.13899052  0.33379006    -0.27700
F701        F  0.24594179  0.08702687  0.39291356    -0.19800
H702        H  0.24989565  0.12883978  0.42753648     0.15900
F703        F  0.26877004  0.18461061  0.34227208    -0.23500
H704        H  0.26619859  0.14189934  0.30761169     0.17700
O705        O  0.25918241  0.70562800  0.40320882    -0.85800
O706        O  0.25865648  0.70320444  0.59292812    -0.86000
O707        O  0.30181869  0.67452165  0.49668434    -0.87700
O708        O  0.21859526  0.67513851  0.49871642    -0.86400
O709        O  0.18765985  0.70693594  0.49780387    -0.86000
O710        O  0.33274965  0.70626878  0.49853557    -0.87400
O711        O  0.25950827  0.67332610  0.55045747    -0.85800
O712        O  0.25822742  0.67482469  0.44465204    -0.85400
Zr713      Zr  0.26027889  0.69641794  0.49798176     2.84300
O714        O  0.23414425  0.72200076  0.53223341    -1.07400
O715        O  0.28640162  0.72257575  0.46436391    -1.08100
C716        C  0.25779687  0.68164942  0.41388910     1.07300
C717        C  0.25886655  0.67939708  0.58151913     1.07200
C718        C  0.32546667  0.68218054  0.49736704     1.10200
C719        C  0.19500271  0.68282721  0.49838176     1.08000
H720        H  0.29632854  0.71045812  0.54662280     0.33600
O721        O  0.28564939  0.72173341  0.53328403    -1.28400
H722        H  0.22392084  0.71215621  0.45045143     0.33200
O723        O  0.23494113  0.72290166  0.46404886    -1.30000
O724        O  0.25916262  0.79118759  0.59520080    -0.85800
O725        O  0.26112660  0.79322134  0.40471373    -0.87300
O726        O  0.33155765  0.74806227  0.55405955    -0.85900
O727        O  0.18713617  0.74713814  0.55066394    -0.85900
O728        O  0.18815540  0.74963031  0.44517133    -0.85600
O729        O  0.33359931  0.74898317  0.44637866    -0.85500
O730        O  0.30249285  0.82188252  0.50454783    -0.85800
O731        O  0.21987532  0.82315842  0.50188507    -0.85300
O732        O  0.33344230  0.79017970  0.50414785    -0.86400
O733        O  0.18871072  0.79161876  0.50048872    -0.85500
O734        O  0.30136305  0.74796418  0.59556226    -0.85900
O735        O  0.30403803  0.74903536  0.40432622    -0.85600
O736        O  0.21820515  0.75060068  0.40333972    -0.85300
O737        O  0.21607006  0.74601166  0.59330738    -0.85700
O738        O  0.26130432  0.82206628  0.55395840    -0.86000
O739        O  0.26158788  0.82306501  0.44728256    -0.87300
Zr740      Zr  0.25932338  0.74752381  0.56800971     2.83100
Zr741      Zr  0.26094839  0.74931785  0.43012847     2.83500
Zr742      Zr  0.31145934  0.74834489  0.49969790     2.84100
Zr743      Zr  0.20946979  0.74900586  0.49828805     2.83400
Zr744      Zr  0.26085181  0.80062755  0.50028580     2.84200
O745        O  0.23520843  0.77557371  0.46486311    -1.07900
O746        O  0.28560658  0.77386135  0.53418799    -1.07400
C747        C  0.26040261  0.81524236  0.58474588     1.07300
C748        C  0.26160040  0.81696091  0.41622321     1.09900
C749        C  0.32490707  0.74812366  0.58494980     1.07400
C750        C  0.19286466  0.74613941  0.58167079     1.07800
C751        C  0.19470903  0.75005244  0.41431459     1.07400
C752        C  0.32743705  0.74892426  0.41537244     1.06900
C753        C  0.32606809  0.81425333  0.50609034     1.07400
C754        C  0.19621478  0.81569260  0.50209425     1.06900
H755        H  0.29784322  0.78633373  0.45258422     0.33500
O756        O  0.28669446  0.77511427  0.46549917    -1.29000
H757        H  0.22351444  0.78540557  0.54741218     0.33600
O758        O  0.23444054  0.77454384  0.53371932    -1.30400
N759        N  0.47072353  0.99995758  0.52293738    -0.35900
N760        N  0.00911188  0.95797633  0.51924692    -0.56500
N761        N  0.04873172  0.99786872  0.52049283    -0.35900
N762        N  0.01056244  0.53966864  0.50706283    -0.56500
C763        C  0.45597343  0.97835061  0.51894526     0.27700
C764        C  0.45688410  0.51831416  0.49275623     0.27700
C765        C  0.06332484  0.97636873  0.51552302     0.27600
C766        C  0.06395992  0.51980710  0.50334072     0.27600
C767        C  0.48974164  0.94405598  0.52531769     0.36300
C768        C  0.02963697  0.94257121  0.52543074     0.36300
C769        C  0.48832815  0.55234510  0.50852237     0.36300
C770        C  0.03145496  0.55436255  0.51370974     0.36300
C771        C  0.43148951  0.98568236  0.50926243    -0.21200
C772        C  0.43436899  0.51035523  0.47748521    -0.21200
C773        C  0.08766127  0.98381096  0.50490946    -0.21200
C774        C  0.08785175  0.51161562  0.49210257    -0.21200
C775        C  0.49768870  0.91839216  0.52960819    -0.22300
C776        C  0.02156591  0.91754574  0.53371644    -0.22300
C777        C  0.49529391  0.57711032  0.51935537    -0.22300
C778        C  0.02421588  0.57933901  0.52332254    -0.22300
C779        C  0.46380601  0.95210311  0.52358457    -0.17600
C780        C  0.46321191  0.54442748  0.50044794    -0.17600
C781        C  0.05691746  0.54609348  0.50846984    -0.17600
C782        C  0.05556170  0.95025720  0.52128033    -0.17600
H783        H  0.41531785  0.97304038  0.50397062     0.15300
H784        H  0.41920313  0.52265014  0.46789106     0.15300
H785        H  0.10377234  0.97126465  0.49893943     0.15300
H786        H  0.10392137  0.52371028  0.48455865     0.15300
H787        H  0.48579241  0.90127351  0.53349560     0.13600
H788        H  0.03344961  0.90082158  0.53958417     0.13600
H789        H  0.48279256  0.59348223  0.52482412     0.13600
H790        H  0.03663480  0.59557876  0.52965771     0.13600
H791        H  0.48889348  0.00056713  0.53334583     0.26800
H792        H  0.03086782  0.99830602  0.53195611     0.26800
O793        O  0.48668296  0.95788272  0.89986444    -0.85800
O794        O  0.48822033  0.95319122  0.08848582    -0.86000
O795        O  0.03090984  0.92436371  0.00126560    -0.87700
O796        O  0.44659141  0.92555279  0.99442699    -0.86400
O797        O  0.41521464  0.95687858  0.99541906    -0.86000
O798        O  0.06185717  0.95612871  0.00102615    -0.87400
O799        O  0.48779880  0.92349087  0.04566988    -0.85800
O800        O  0.48598702  0.92639932  0.94050269    -0.85400
Zr801      Zr  0.48780398  0.94759004  0.99409263     2.84300
O802        O  0.46166433  0.97233202  0.02945584    -1.07400
O803        O  0.01490588  0.97141084  0.96525030    -1.08100
C804        C  0.48569484  0.93372947  0.90993540     1.07300
C805        C  0.48823894  0.92953480  0.07669653     1.07200
C806        C  0.05458049  0.93197065  0.00141093     1.10200
C807        C  0.42289504  0.93286114  0.99473183     1.08000
H808        H  0.02535202  0.96172213  0.04809990     0.33600
O809        O  0.01460124  0.97248733  0.03426264    -1.28400
H810        H  0.45097106  0.96345087  0.94740161     0.33200
O811        O  0.46185359  0.97419458  0.96115460    -1.30000
O812        O  0.48942321  0.54234207  0.09155560    -0.85800
O813        O  0.48601145  0.54063915  0.90057925    -0.87300
O814        O  0.06096308  0.00072914  0.05257310    -0.85900
O815        O  0.41475587  0.99892744  0.04981158    -0.85900
O816        O  0.41513883  0.00109601  0.94276008    -0.85600
O817        O  0.06200915  0.99574821  0.94617638    -0.85500
O818        O  0.02790377  0.57417598  0.99590695    -0.85800
O819        O  0.44649056  0.57226401  0.99737959    -0.85300
O820        O  0.05856964  0.54214427  0.99555703    -0.86400
O821        O  0.41590518  0.54013581  0.99767573    -0.85500
O822        O  0.03072312  0.99988022  0.09429098    -0.85900
O823        O  0.02862936  0.49800798  0.90233167    -0.85600
O824        O  0.44472785  0.49634060  0.90220055    -0.85300
O825        O  0.44468618  0.99778691  0.09134536    -0.85700
O826        O  0.48920493  0.57227591  0.04919531    -0.86000
O827        O  0.48558162  0.57148139  0.94198848    -0.87300
Zr828      Zr  0.48743261  0.99773360  0.06483574     2.83100
Zr829      Zr  0.48758093  0.00126296  0.92760994     2.83500
Zr830      Zr  0.03995378  0.99812639  0.99914035     2.84100
Zr831      Zr  0.43618385  0.99944891  0.99636373     2.83400
Zr832      Zr  0.48802053  0.55048503  0.99581644     2.84200
O833        O  0.46209785  0.52418431  0.96235782    -1.07900
O834        O  0.01316178  0.52674402  0.03103376    -1.07400
C835        C  0.48977544  0.56609815  0.08021685     1.07300
C836        C  0.48504878  0.56462438  0.91117755     1.09900
C837        C  0.05410224  0.00085822  0.08333940     1.07400
C838        C  0.42122601  0.99864616  0.08066915     1.07800
C839        C  0.42128804  0.49651979  0.91327222     1.07400
C840        C  0.05210716  0.49593982  0.91292262     1.06900
C841        C  0.05143002  0.56626897  0.99554833     1.07400
C842        C  0.42295079  0.56428643  0.99808810     1.06900
H843        H  0.02271991  0.53760504  0.94860405     0.33500
O844        O  0.01208162  0.52670990  0.96259362    -1.29000
H845        H  0.45196260  0.53586175  0.04454010     0.33600
O846        O  0.46270358  0.52472905  0.03100109    -1.30400
N847        N  0.20009139  0.74740724  0.00117442    -0.35900
N848        N  0.23882748  0.70728826  0.00672590    -0.56500
N849        N  0.27827578  0.74765707  0.01189882    -0.35900
N850        N  0.23947248  0.78763013  0.00191328    -0.56500
C851        C  0.18587019  0.72593477  0.99443059     0.27700
C852        C  0.18604523  0.76843440  0.99223414     0.27700
C853        C  0.29282704  0.72610553  0.00699926     0.27600
C854        C  0.29327182  0.76856692  0.00494127     0.27600
C855        C  0.21780092  0.69207078  0.01015667     0.36300
C856        C  0.25901724  0.69225558  0.01512274     0.36300
C857        C  0.21853200  0.80318893  0.00313849     0.36300
C858        C  0.25988114  0.80323750  0.00794376     0.36300
C859        C  0.16246171  0.73340867  0.98114466    -0.21200
C860        C  0.16254644  0.76027580  0.97986397    -0.21200
C861        C  0.31743761  0.73342714  0.99742905    -0.21200
C862        C  0.31774520  0.76024213  0.99626875    -0.21200
C863        C  0.22464343  0.66720681  0.02059873    -0.22300
C864        C  0.25084694  0.66732151  0.02374561    -0.22300
C865        C  0.22571696  0.82883370  0.00958438    -0.22300
C866        C  0.25195686  0.82887175  0.01250397    -0.22300
C867        C  0.19269776  0.69991820  0.00206905    -0.17600
C868        C  0.19312185  0.79481873  0.99708484    -0.17600
C869        C  0.28571279  0.79501674  0.00684435    -0.17600
C870        C  0.28485359  0.70002043  0.01215555    -0.17600
H871        H  0.14678128  0.72083447  0.97361173     0.15300
H872        H  0.14697571  0.77244433  0.97112759     0.15300
H873        H  0.33353413  0.72077908  0.99174097     0.15300
H874        H  0.33409148  0.77221832  0.98943921     0.15300
H875        H  0.21211565  0.65065412  0.02509932     0.13600
H876        H  0.26257924  0.65085196  0.03109361     0.13600
H877        H  0.21339059  0.84580612  0.01167611     0.13600
H878        H  0.26386375  0.84584476  0.01720383     0.13600
H879        H  0.21684136  0.74786910  0.01499657     0.26800
H880        H  0.26003405  0.74813620  0.02241608     0.26800
C881        C  0.03233972  0.74979837  0.27428888     0.87200
C882        C  0.03144260  0.72567726  0.25175555    -0.53100
C883        C  0.51030839  0.72524471  0.22723567     0.10100
C884        C  0.49169194  0.74859019  0.23211444     0.21000
C885        C  0.02961136  0.77320734  0.25105342    -0.53800
C886        C  0.50868150  0.77331435  0.22773989     0.10200
C887        C  0.50592397  0.74839647  0.28954477    -0.53300
C888        C  0.48498216  0.74788333  0.26934906     0.10800
H889        H  0.04593677  0.71040042  0.25234513     0.15300
H890        H  0.47468742  0.74787266  0.21562339     0.01000
H891        H  0.04311147  0.78936612  0.25201725     0.15600
H892        H  0.50356029  0.74721659  0.31615213     0.15400
C893        C  0.21555162  0.99641796  0.22218862     0.87200
C894        C  0.21846769  0.97266709  0.24500254    -0.53100
C895        C  0.23974483  0.97308906  0.26492326     0.10100
C896        C  0.25669678  0.99778906  0.25931785     0.21000
C897        C  0.21674397  0.52316103  0.24317415    -0.53800
C898        C  0.23760847  0.52394771  0.26353227     0.10200
C899        C  0.24105810  0.99739055  0.20264113    -0.53300
C900        C  0.26242519  0.99831463  0.22193898     0.10800
H901        H  0.20477777  0.95662535  0.24483400     0.15300
H902        H  0.27445204  0.99860573  0.27415727     0.01000
H903        H  0.20281527  0.53894919  0.24202939     0.15600
H904        H  0.24296415  0.99780402  0.17597845     0.15400
C905        C  0.03168393  0.74460566  0.72565328     0.87200
C906        C  0.03003020  0.76909072  0.74776636    -0.53100
C907        C  0.50639563  0.77253565  0.76846000     0.10100
C908        C  0.48822027  0.74895653  0.76288019     0.21000
C909        C  0.02723373  0.72177781  0.74977714    -0.53800
C910        C  0.50490607  0.72447377  0.76874498     0.10200
C911        C  0.50500861  0.74765449  0.70633477    -0.53300
C912        C  0.48319048  0.74875399  0.72534022     0.10800
H913        H  0.04501127  0.78384484  0.74770982     0.15300
H914        H  0.47045761  0.74929849  0.77818864     0.01000
H915        H  0.03975204  0.70512695  0.75278585     0.15600
H916        H  0.50449172  0.74683411  0.67944251     0.15400
C917        C  0.21776527  0.00087059  0.77336095     0.87200
C918        C  0.21764410  0.52099712  0.75161468    -0.53100
C919        C  0.23876197  0.52149413  0.73143421     0.10100
C920        C  0.25812065  0.99996479  0.73419889     0.21000
C921        C  0.21800729  0.97807714  0.74841043    -0.53800
C922        C  0.23914922  0.97708534  0.72803680     0.10200
C923        C  0.24360267  0.99817242  0.79156659    -0.53300
C924        C  0.26459207  0.99766152  0.77123195     0.10800
H925        H  0.20355281  0.53666711  0.75199522     0.15300
H926        H  0.27525193  0.00003943  0.71776486     0.01000
H927        H  0.20326492  0.96303145  0.74853361     0.15600
H928        H  0.24597402  0.99698435  0.81810575     0.15400
C929        C  0.12082947  0.51296834  0.11373738    -0.27500
C930        C  0.11925180  0.00019031  0.14766062     0.06100
C931        C  0.09885990  0.98248659  0.15290876     0.25700
C932        C  0.07685777  0.98363444  0.13306290    -0.12000
C933        C  0.07513731  0.00211578  0.10748026    -0.26000
C934        C  0.09935944  0.51402701  0.09332062     0.36500
C935        C  0.14364827  0.99812828  0.16641912     0.06100
F936        F  0.10078310  0.96322002  0.17589989    -0.19800
H937        H  0.06175770  0.96927644  0.13655673     0.15900
F938        F  0.10111653  0.52755291  0.06442773    -0.23500
H939        H  0.13815146  0.52306390  0.10601044     0.17700
C940        C  0.16732305  0.99864863  0.14961403     0.25700
C941        C  0.19034383  0.99767960  0.16711915    -0.12000
C942        C  0.19058164  0.99610493  0.20206107    -0.26000
C943        C  0.16664849  0.99513546  0.21873905     0.36600
C944        C  0.14355332  0.99613954  0.20109602    -0.27700
F945        F  0.16829742  0.99980553  0.11599124    -0.19800
H946        H  0.20758722  0.48586365  0.15434831     0.15900
F947        F  0.16557033  0.99367810  0.25231690    -0.23500
H948        H  0.12555123  0.99594172  0.21464789     0.17700
C949        C  0.38252220  0.00568645  0.16103879    -0.27500
C950        C  0.35730603  0.00379288  0.14906332     0.06100
C951        C  0.35377327  0.49846780  0.11614928     0.25700
C952        C  0.37475492  0.49877266  0.09449918    -0.12000
C953        C  0.39962571  0.99989215  0.10502804    -0.26000
C954        C  0.40356854  0.00395097  0.13926107     0.36500
C955        C  0.33494996  0.00487751  0.17177320     0.06100
F956        F  0.32972379  0.49808798  0.10323377    -0.19800
H957        H  0.37087615  0.49807787  0.06815988     0.15900
F958        F  0.42759599  0.00661622  0.15172684    -0.23500
H959        H  0.38587054  0.00870871  0.18725015     0.17700
C960        C  0.33113571  0.98529172  0.19571134     0.25700
C961        C  0.30787214  0.98383155  0.21314109    -0.12000
C962        C  0.28828821  0.00201906  0.20722959    -0.26000
C963        C  0.30671473  0.51535913  0.21591657     0.36600
C964        C  0.32997173  0.51557127  0.19796445    -0.27700
F965        F  0.34913192  0.96647781  0.20043236    -0.19800
H966        H  0.30463050  0.96754517  0.22961362     0.15900
F967        F  0.30181966  0.53481094  0.23799796    -0.23500
H968        H  0.34363125  0.53121882  0.20215551     0.17700
C969        C  0.99804588  0.88957275  0.16108459    -0.27500
C970        C  0.49382975  0.86276450  0.14129340     0.06100
C971        C  0.47839808  0.86183053  0.11284836     0.25700
C972        C  0.47628703  0.88380635  0.09236336    -0.12000
C973        C  0.48922490  0.90723103  0.10008572    -0.26000
C974        C  0.99595470  0.91199700  0.14111645     0.36500
C975        C  0.49724363  0.83920831  0.16228230     0.06100
F976        F  0.46615006  0.83937145  0.10423528    -0.19800
H977        H  0.46462810  0.88246534  0.07023318     0.15900
F978        F  0.00462175  0.93525253  0.15292694    -0.23500
H979        H  0.00634219  0.89132806  0.18556876     0.17700
C980        C  0.01962708  0.83381187  0.17816345     0.25700
C981        C  0.02396859  0.81091244  0.19617659    -0.12000
C982        C  0.50403542  0.79503125  0.20370997    -0.26000
C983        C  0.47933795  0.80537824  0.19829888     0.36600
C984        C  0.47603537  0.82722794  0.17768935    -0.27700
F985        F  0.03996742  0.84892737  0.16922482    -0.19800
H986        H  0.04366175  0.80606645  0.20192150     0.15900
F987        F  0.45851384  0.79521614  0.21389309    -0.23500
H988        H  0.45694706  0.83518949  0.17430796     0.17700
C989        C  0.52239017  0.66907408  0.16748804    -0.27500
C990        C  0.49866871  0.65600011  0.16776684     0.06100
C991        C  0.98023048  0.66613112  0.18845197     0.25700
C992        C  0.98311875  0.68872005  0.20791602    -0.12000
C993        C  0.50572739  0.70248925  0.20490632    -0.26000
C994        C  0.52594533  0.69203259  0.18575109     0.36500
C995        C  0.49511230  0.63276188  0.14610751     0.06100
F996        F  0.95734010  0.65337925  0.18831559    -0.19800
H997        H  0.96721500  0.69533465  0.22315543     0.15900
F998        F  0.54910283  0.70422713  0.18427026    -0.23500
H999        H  0.53821767  0.66150163  0.15282875     0.17700
C1000       C  0.49933744  0.63522708  0.11192727     0.25700
C1001       C  0.49739695  0.61353259  0.09117377    -0.12000
C1002       C  0.49132809  0.58856104  0.10379895    -0.26000
C1003       C  0.99043491  0.58721332  0.13942503     0.36600
C1004       C  0.99207390  0.60919225  0.16021974    -0.27700
F1005       F  0.50528666  0.65882793  0.09848460    -0.19800
H1006       H  0.50100374  0.61643049  0.06497255     0.15900
F1007       F  0.98488297  0.56356079  0.15297898    -0.23500
H1008       H  0.98901543  0.60686934  0.18662938     0.17700
C1009       C  0.08853998  0.86604013  0.99817871    -0.27500
C1010       C  0.11427418  0.87358057  0.00110523     0.06100
C1011       C  0.12044565  0.90012919  0.00486562     0.25700
C1012       C  0.10095453  0.91894005  0.00538953    -0.12000
C1013       C  0.07497859  0.91159812  0.00191461    -0.26000
C1014       C  0.06901794  0.88476567  0.99838277     0.36500
C1015       C  0.13451830  0.85352093  0.99998272     0.06100
F1016       F  0.14527654  0.90778850  0.00833277    -0.19800
H1017       H  0.10628881  0.93930078  0.00835383     0.15900
F1018       F  0.04444457  0.87647421  0.99447836    -0.23500
H1019       H  0.08361003  0.84556189  0.99521043     0.17700
C1020       C  0.13714340  0.83565307  0.02614637     0.25700
C1021       C  0.15613280  0.81643998  0.02477947    -0.12000
C1022       C  0.17247900  0.81466780  0.99717963    -0.26000
C1023       C  0.16944932  0.83205039  0.97055677     0.36600
C1024       C  0.15069051  0.85158729  0.97215917    -0.27700
F1025       F  0.12156506  0.83706141  0.05315069    -0.19800
H1026       H  0.15828212  0.80301787  0.04535880     0.15900
F1027       F  0.18450627  0.82995062  0.94312700    -0.23500
H1028       H  0.14851077  0.86499930  0.95158158     0.17700
C1029       C  0.35885236  0.89774651  0.98859815    -0.27500
C1030       C  0.36600392  0.87194779  0.99577203     0.06100
C1031       C  0.39195666  0.86597768  0.00105941     0.25700
C1032       C  0.41034207  0.88585566  0.00046609    -0.12000
C1033       C  0.40317769  0.91198294  0.99433956    -0.26000
C1034       C  0.37718407  0.91765556  0.98784211     0.36500
C1035       C  0.34604512  0.85164151  0.99848813     0.06100
F1036       F  0.39952504  0.84091797  0.00644747    -0.19800
H1037       H  0.43018923  0.88074603  0.00512196     0.15900
F1038       F  0.36936062  0.94232833  0.98060882    -0.23500
H1039       H  0.33889152  0.90254772  0.98417127     0.17700
C1040       C  0.34265872  0.83764290  0.02817982     0.25700
C1041       C  0.32270861  0.81947865  0.03107551    -0.12000
C1042       C  0.30603336  0.81515597  0.00441691    -0.26000
C1043       C  0.30959300  0.82890877  0.97467826     0.36600
C1044       C  0.32939391  0.84717026  0.97183638    -0.27700
F1045       F  0.35820893  0.84207036  0.05454567    -0.19800
H1046       H  0.32022028  0.80874875  0.05401694     0.15900
F1047       F  0.29409619  0.82431029  0.94833109    -0.23500
H1048       H  0.33183701  0.85779183  0.94880517     0.17700
C1049       C  0.34259607  0.65940177  0.03493237    -0.27500
C1050       C  0.34332743  0.64173191  0.00833777     0.06100
C1051       C  0.32445370  0.64271574  0.98366970     0.25700
C1052       C  0.30531315  0.66164309  0.98524268    -0.12000
C1053       C  0.30462364  0.67942319  0.01169906    -0.26000
C1054       C  0.32317686  0.67811810  0.03677081     0.36500
C1055       C  0.36377048  0.62218341  0.00626144     0.06100
F1056       F  0.32496695  0.62576000  0.95773415    -0.19800
H1057       H  0.29111628  0.66264828  0.96572126     0.15900
F1058       F  0.32250043  0.69504799  0.06272284    -0.23500
H1059       H  0.35699262  0.65857312  0.05421773     0.17700
C1060       C  0.38942638  0.62987589  0.00220631     0.25700
C1061       C  0.40862343  0.61098170  0.99929189    -0.12000
C1062       C  0.40240987  0.58417143  0.00024978    -0.26000
C1063       C  0.37641900  0.57669264  0.00407258     0.36600
C1064       C  0.35739180  0.59562906  0.00712082    -0.27700
F1065       F  0.39574215  0.65561844  0.00016921    -0.19800
H1066       H  0.42831755  0.61739294  0.99615055     0.15900
F1067       F  0.36916563  0.55116578  0.00496598    -0.23500
H1068       H  0.33755544  0.58958186  0.01009930     0.17700
C1069       C  0.15062473  0.64400297  0.97419562    -0.27500
C1070       C  0.13167561  0.64390965  0.99912091     0.06100
C1071       C  0.13346259  0.66178009  0.02556830     0.25700
C1072       C  0.15356453  0.67979009  0.02648176    -0.12000
C1073       C  0.17225495  0.67993474  0.00141603    -0.26000
C1074       C  0.17089426  0.66178808  0.97539401     0.36500
C1075       C  0.11081783  0.62440200  0.99784273     0.06100
F1076       F  0.11624180  0.66139989  0.05092477    -0.19800
H1077       H  0.15465511  0.69365009  0.04677495     0.15900
F1078       F  0.18895747  0.66153765  0.95102881    -0.23500
H1079       H  0.14961241  0.63038067  0.95363938     0.17700
C1080       C  0.08500298  0.63160518  0.00262949     0.25700
C1081       C  0.06574859  0.61263832  0.00166251    -0.12000
C1082       C  0.07185089  0.58628299  0.99543880    -0.26000
C1083       C  0.09769014  0.57930058  0.98975896     0.36600
C1084       C  0.11688223  0.59818905  0.99124643    -0.27700
F1085       F  0.07828751  0.65699430  0.00748255    -0.19800
H1086       H  0.04605428  0.61864973  0.00587747     0.15900
F1087       F  0.10458862  0.55430418  0.98252339    -0.23500
H1088       H  0.13664794  0.59225277  0.98742275     0.17700
C1089       C  0.33272338  0.50894605  0.79474760    -0.27500
C1090       C  0.33713222  0.99418622  0.82036999     0.06100
C1091       C  0.31816532  0.97532483  0.82683487     0.25700
C1092       C  0.29524215  0.97558132  0.80908002    -0.12000
C1093       C  0.29075810  0.99479323  0.78489844    -0.26000
C1094       C  0.30933294  0.51016524  0.77750131     0.36500
C1095       C  0.35927450  0.99678803  0.84276201     0.06100
F1096       F  0.32139864  0.95736733  0.85125263    -0.19800
H1097       H  0.28046837  0.96140130  0.81516248     0.15900
F1098       F  0.30586635  0.52922080  0.75455551    -0.23500
H1099       H  0.34750549  0.52332429  0.78957426     0.17700
C1100       C  0.38401147  0.48974424  0.83205610     0.25700
C1101       C  0.40439028  0.49118654  0.85480253    -0.12000
C1102       C  0.39969661  0.49558805  0.88885122    -0.26000
C1103       C  0.37572508  0.00939933  0.89666795     0.36600
C1104       C  0.35531122  0.00693840  0.87460735    -0.27700
F1105       F  0.38916810  0.48513581  0.79956413    -0.19800
H1106       H  0.42383827  0.48864850  0.84574643     0.15900
F1107       F  0.37101274  0.01996534  0.92699475    -0.23500
H1108       H  0.33628075  0.01306330  0.88234207     0.17700
C1109       C  0.14626189  0.00272854  0.79804079    -0.27500
C1110       C  0.14397515  0.49377053  0.83147582     0.06100
C1111       C  0.16780366  0.49439192  0.84784639     0.25700
C1112       C  0.19083073  0.49555416  0.82977059    -0.12000
C1113       C  0.19323974  0.00122107  0.79482786    -0.26000
C1114       C  0.16904343  0.00368331  0.77942169     0.36500
C1115       C  0.11926831  0.49288625  0.85044455     0.06100
F1116       F  0.16893217  0.49451550  0.88147892    -0.19800
H1117       H  0.20828616  0.49629806  0.84392483     0.15900
F1118       F  0.16738408  0.00672470  0.74607617    -0.23500
H1119       H  0.12806700  0.00397307  0.78523720     0.17700
C1120       C  0.10223530  0.01576318  0.84733989     0.25700
C1121       C  0.07974336  0.01420930  0.86658745    -0.12000
C1122       C  0.07358046  0.49286506  0.88899728    -0.26000
C1123       C  0.09373949  0.47533178  0.89609313     0.36600
C1124       C  0.11616961  0.47525281  0.87686318    -0.27700
F1125       F  0.10473179  0.03560706  0.82522172    -0.19800
H1126       H  0.06478702  0.02867511  0.86318199     0.15900
F1127       F  0.09191106  0.45851301  0.92207745    -0.23500
H1128       H  0.13130686  0.46155470  0.88291376     0.17700
C1129       C  0.46994974  0.66614473  0.80644315    -0.27500
C1130       C  0.48951501  0.65517167  0.82583477     0.06100
C1131       C  0.01175935  0.66988697  0.83126548     0.25700
C1132       C  0.01669661  0.69221599  0.81249576    -0.12000
C1133       C  0.49827069  0.70208737  0.79065668    -0.26000
C1134       C  0.47424665  0.68950001  0.78891396     0.36500
C1135       C  0.48503581  0.63110729  0.84532083     0.06100
F1136       F  0.03046976  0.66014081  0.85109233    -0.19800
H1137       H  0.03545612  0.70132934  0.81407867     0.15900
F1138       F  0.45540194  0.69903678  0.76920661    -0.23500
H1139       H  0.45146789  0.65649590  0.80471471     0.17700
C1140       C  0.47527062  0.63311018  0.87757369     0.25700
C1141       C  0.47441165  0.61113673  0.89807065    -0.12000
C1142       C  0.48334286  0.58657649  0.88693953    -0.26000
C1143       C  0.98653133  0.58688875  0.85683264     0.36600
C1144       C  0.98780699  0.60896427  0.83629206    -0.27700
F1145       F  0.46763037  0.65665197  0.88973239    -0.19800
H1146       H  0.46728927  0.61358302  0.92315178     0.15900
F1147       F  0.99241003  0.56311194  0.84386818    -0.23500
H1148       H  0.99357418  0.60669226  0.81061718     0.17700
C1149       C  0.49903909  0.88988531  0.83557168    -0.27500
C1150       C  0.48556120  0.86701030  0.84447514     0.06100
C1151       C  0.98054214  0.86005515  0.88270488     0.25700
C1152       C  0.97971632  0.88197281  0.90356703    -0.12000
C1153       C  0.48388000  0.91214717  0.88531871    -0.26000
C1154       C  0.49813075  0.91233296  0.85565385     0.36500
C1155       C  0.49009410  0.84220760  0.82601034     0.06100
F1156       F  0.97295102  0.83642892  0.89463235    -0.19800
H1157       H  0.97248357  0.87943566  0.92857470     0.15900
F1158       F  0.51263808  0.93342043  0.84731193    -0.23500
H1159       H  0.51106262  0.89000160  0.81358873     0.17700
C1160       C  0.46988482  0.82730680  0.81255613     0.25700
C1161       C  0.47514635  0.80418626  0.79489419    -0.12000
C1162       C  0.50057541  0.79541718  0.79048750    -0.26000
C1163       C  0.02362934  0.80691311  0.80525840     0.36600
C1164       C  0.01912012  0.82930005  0.82438032    -0.27700
F1165       F  0.44518299  0.83548904  0.81555962    -0.19800
H1166       H  0.45930858  0.79363190  0.78389302     0.15900
F1167       F  0.04807603  0.79787317  0.80322648    -0.23500
H1168       H  0.03523373  0.83923954  0.83575674     0.17700
C1169       C  0.41848115  0.77076677  0.69285823    -0.27500
C1170       C  0.40926764  0.74750528  0.67864143     0.06100
C1171       C  0.42375305  0.72444318  0.68173979     0.25700
C1172       C  0.44755272  0.72489804  0.69766691    -0.12000
C1173       C  0.45716495  0.74829225  0.71088597    -0.26000
C1174       C  0.44232413  0.77119705  0.70891283     0.36500
C1175       C  0.38717237  0.74816788  0.65574765     0.06100
F1176       F  0.41524515  0.70170783  0.66822104    -0.19800
H1177       H  0.45879494  0.70710069  0.69906415     0.15900
F1178       F  0.45155113  0.79422343  0.72070823    -0.23500
H1179       H  0.40781930  0.78882030  0.69002657     0.17700
C1180       C  0.36164374  0.75011690  0.66691479     0.25700
C1181       C  0.34133751  0.75004632  0.64399454    -0.12000
C1182       C  0.34626475  0.74830736  0.60961704    -0.26000
C1183       C  0.37213499  0.74678099  0.59889447     0.36600
C1184       C  0.39212311  0.74659022  0.62173753    -0.27700
F1185       F  0.35638636  0.75164890  0.69984678    -0.19800
H1186       H  0.32180321  0.75135768  0.65317126     0.15900
F1187       F  0.37845132  0.74533034  0.56626418    -0.23500
H1188       H  0.41173700  0.74523578  0.61278617     0.17700
C1189       C  0.15078245  0.73800480  0.65893974    -0.27500
C1190       C  0.12641959  0.74445127  0.64624622     0.06100
C1191       C  0.12427895  0.75081549  0.61255456     0.25700
C1192       C  0.14597458  0.75152480  0.59232578    -0.12000
C1193       C  0.17050317  0.74543602  0.60478404    -0.26000
C1194       C  0.17266567  0.73832694  0.63839775     0.36500
C1195       C  0.10308679  0.74447460  0.66764140     0.06100
F1196       F  0.10100528  0.75573239  0.59883723    -0.19800
H1197       H  0.14335854  0.75683441  0.56657478     0.15900
F1198       F  0.19567839  0.73124971  0.65127331    -0.23500
H1199       H  0.15289593  0.73289447  0.68483155     0.17700
C1200       C  0.09706094  0.72301037  0.68786291     0.25700
C1201       C  0.07420371  0.72265359  0.70621325    -0.12000
C1202       C  0.05657052  0.74374523  0.70496935    -0.26000
C1203       C  0.06273297  0.76505257  0.68418767     0.36600
C1204       C  0.08577471  0.76552219  0.66626781    -0.27700
F1205       F  0.11279564  0.70184211  0.68899478    -0.19800
H1206       H  0.07078140  0.70534051  0.72067394     0.15900
F1207       F  0.04643569  0.78563718  0.68126898    -0.23500
H1208       H  0.09002159  0.78240993  0.65098072     0.17700
C1209       C  0.23595255  0.56765473  0.65794556    -0.27500
C1210       C  0.25115292  0.58877655  0.66883943     0.06100
C1211       C  0.26280399  0.58712941  0.70022840     0.25700
C1212       C  0.25924781  0.56486810  0.72009766    -0.12000
C1213       C  0.24406395  0.54390894  0.70909648    -0.26000
C1214       C  0.23234258  0.54548054  0.67789219     0.36500
C1215       C  0.25456673  0.61231745  0.64732698     0.06100
F1216       F  0.27788026  0.60687731  0.71151827    -0.19800
H1217       H  0.26803450  0.56414275  0.74436396     0.15900
F1218       F  0.21706401  0.52575255  0.66697315    -0.23500
H1219       H  0.22645910  0.56854521  0.63413150     0.17700
C1220       C  0.26186983  0.60952434  0.61394027     0.25700
C1221       C  0.26370407  0.63141841  0.59328297    -0.12000
C1222       C  0.25827383  0.65682244  0.60515434    -0.26000
C1223       C  0.25154413  0.65970316  0.63886559     0.36600
C1224       C  0.24975930  0.63766026  0.65963172    -0.27700
F1225       F  0.26746265  0.58555869  0.60125064    -0.19800
H1226       H  0.26929472  0.62831381  0.56768769     0.15900
F1227       F  0.24586138  0.68360985  0.65160098    -0.23500
H1228       H  0.24389710  0.64032955  0.68520234     0.17700
C1229       C  0.27313991  0.92036392  0.68372826    -0.27500
C1230       C  0.25231894  0.90666464  0.67001889     0.06100
C1231       C  0.22753237  0.91711794  0.67360431     0.25700
C1232       C  0.22361287  0.94044053  0.69125686    -0.12000
C1233       C  0.24427679  0.95390473  0.70601668    -0.26000
C1234       C  0.26926079  0.94364004  0.70167419     0.36500
C1235       C  0.25656375  0.88239163  0.65024899     0.06100
F1236       F  0.20713031  0.90501920  0.65938771    -0.19800
H1237       H  0.20423687  0.94794204  0.69343884     0.15900
F1238       F  0.28991144  0.95527470  0.71585309    -0.23500
H1239       H  0.29244898  0.91277535  0.68090035     0.17700
C1240       C  0.26940902  0.88374558  0.61969182     0.25700
C1241       C  0.27122522  0.86161759  0.59935157    -0.12000
C1242       C  0.26063125  0.83736525  0.60907960    -0.26000
C1243       C  0.24891637  0.83566456  0.64058633     0.36600
C1244       C  0.24663529  0.85810443  0.66073617    -0.27700
F1245       F  0.27920736  0.90684100  0.60881530    -0.19800
H1246       H  0.28063529  0.86364436  0.57549697     0.15900
F1247       F  0.23865324  0.81273604  0.65128728    -0.23500
H1248       H  0.23675555  0.85664762  0.68434786     0.17700
C1249       C  0.39079160  0.64925771  0.49994940    -0.27500
C1250       C  0.38397522  0.62281270  0.49746481     0.06100
C1251       C  0.35797791  0.61588137  0.49471101     0.25700
C1252       C  0.33908445  0.63524293  0.49456761    -0.12000
C1253       C  0.34578264  0.66186900  0.49709196    -0.26000
C1254       C  0.37201294  0.66866952  0.49965708     0.36500
C1255       C  0.40412300  0.60259660  0.49784093     0.06100
F1256       F  0.35091754  0.59042071  0.49144565    -0.19800
H1257       H  0.31918935  0.62930557  0.49236663     0.15900
F1258       F  0.37972954  0.69399076  0.50207605    -0.23500
H1259       H  0.41076773  0.65488721  0.50238919     0.21500
C1260       C  0.42503440  0.60398601  0.47574202     0.25700
C1261       C  0.44408370  0.58484683  0.47644178    -0.12000
C1262       C  0.44268075  0.56434356  0.49943119    -0.26000
C1263       C  0.42185332  0.56294461  0.52158235     0.36600
C1264       C  0.40267139  0.58195507  0.52070182    -0.27700
F1265       F  0.42680754  0.62360862  0.45318156    -0.19800
H1266       H  0.46002278  0.58600753  0.45914794     0.15900
F1267       F  0.42032812  0.54339344  0.54428345    -0.23500
H1268       H  0.38685465  0.58080899  0.53818031     0.17700
C1269       C  0.13101869  0.64794298  0.49038772    -0.27500
C1270       C  0.13727540  0.62289994  0.50194137     0.06100
C1271       C  0.16253997  0.61746877  0.51170765     0.25700
C1272       C  0.18122687  0.63700167  0.51011700    -0.12000
C1273       C  0.17498236  0.66231760  0.49906168    -0.26000
C1274       C  0.14959351  0.66760208  0.48910620     0.36500
C1275       C  0.11719693  0.60267904  0.50369913     0.06100
F1276       F  0.16920505  0.59321856  0.52237016    -0.19800
H1277       H  0.20055900  0.63234458  0.51797877     0.15900
F1278       F  0.14266334  0.69159401  0.47784160    -0.23500
H1279       H  0.11156843  0.65234912  0.48274593     0.17700
C1280       C  0.11117624  0.59042353  0.53394543     0.25700
C1281       C  0.09125630  0.57218284  0.53548363    -0.12000
C1282       C  0.07731251  0.56601121  0.50692518    -0.26000
C1283       C  0.08353075  0.57787084  0.47662183     0.36600
C1284       C  0.10329162  0.59625364  0.47509821    -0.27700
F1285       F  0.12413184  0.59655203  0.56204065    -0.19800
H1286       H  0.08665227  0.56284820  0.55887117     0.15900
F1287       F  0.07070341  0.57132827  0.44857265    -0.23500
H1288       H  0.10787209  0.60542091  0.45159575     0.17700
C1289       C  0.09662699  0.89417146  0.49094871    -0.27500
C1290       C  0.11606834  0.89343779  0.51496349     0.06100
C1291       C  0.11534654  0.91135513  0.54148732     0.25700
C1292       C  0.09515007  0.92927018  0.54410057    -0.12000
C1293       C  0.07568152  0.92976221  0.52013003    -0.26000
C1294       C  0.07664198  0.91220409  0.49341429     0.36500
C1295       C  0.13674083  0.87371548  0.51210343     0.06100
F1296       F  0.13392707  0.91133682  0.56500759    -0.19800
H1297       H  0.09482762  0.94305381  0.56452691     0.15900
F1298       F  0.05860479  0.91304800  0.46924456    -0.23500
H1299       H  0.09715068  0.88097980  0.46991649     0.17700
C1300       C  0.13063516  0.84728800  0.50658960     0.25700
C1301       C  0.15005719  0.82876171  0.50301825    -0.12000
C1302       C  0.17605487  0.83605947  0.50503343    -0.26000
C1303       C  0.18217640  0.86260824  0.51086127     0.36600
C1304       C  0.16262994  0.88118674  0.51422303    -0.27700
F1305       F  0.10580165  0.83923445  0.50532731    -0.19800
H1306       H  0.14458729  0.80856888  0.49886307     0.15900
F1307       F  0.20691970  0.87072806  0.51363875    -0.23500
H1308       H  0.16773807  0.90151020  0.51815942     0.17700
C1309       C  0.35888866  0.87968192  0.52187159    -0.27500
C1310       C  0.38482240  0.87286386  0.51842314     0.06100
C1311       C  0.39141795  0.84667615  0.51217340     0.25700
C1312       C  0.37227988  0.82776474  0.50837922    -0.12000
C1313       C  0.34614787  0.83458443  0.51070430    -0.26000
C1314       C  0.33965688  0.86082658  0.51797434     0.36500
C1315       C  0.40491103  0.89325168  0.51999857     0.06100
F1316       F  0.41643647  0.83939658  0.50986660    -0.19800
H1317       H  0.37801342  0.80778154  0.50329997     0.15900
F1318       F  0.31480037  0.86843056  0.52130033    -0.23500
H1319       H  0.35351467  0.89979554  0.52683534     0.17700
C1320       C  0.42178502  0.89688435  0.49310621     0.25700
C1321       C  0.44099366  0.91588238  0.49464421    -0.12000
C1322       C  0.44364997  0.93155497  0.52295056    -0.26000
C1323       C  0.42657961  0.92828382  0.54971906     0.36600
C1324       C  0.40725061  0.90926201  0.54815524    -0.27700
F1325       F  0.41927044  0.88243929  0.46504305    -0.19800
H1326       H  0.45374767  0.91857318  0.47363039     0.15900
F1327       F  0.42871335  0.94341033  0.57726094    -0.23500
H1328       H  0.39429698  0.90678804  0.56900946     0.17700
C1329       C  0.10419104  0.74870513  0.29685645    -0.27500
C1330       C  0.10379723  0.75213668  0.33137299     0.06100
C1331       C  0.08000177  0.75675485  0.34705457     0.25700
C1332       C  0.05712115  0.75614848  0.32902225    -0.12000
C1333       C  0.05719112  0.75128463  0.29463315    -0.26000
C1334       C  0.08131616  0.74862532  0.27862654     0.36500
C1335       C  0.12798729  0.75046969  0.35104543     0.06100
F1336       F  0.07881021  0.76244896  0.37990304    -0.19800
H1337       H  0.03962870  0.76014928  0.34244821     0.15900
F1338       F  0.08280628  0.74553585  0.24523197    -0.23500
H1339       H  0.12223313  0.74558502  0.28398981     0.17700
C1340       C  0.12867556  0.73560924  0.38035836     0.25700
C1341       C  0.15069271  0.73523949  0.39991135    -0.12000
C1342       C  0.17291014  0.74914973  0.39064169    -0.26000
C1343       C  0.17287030  0.76292633  0.36044790     0.36600
C1344       C  0.15052470  0.76362364  0.34090990    -0.27700
F1345       F  0.10812102  0.72108706  0.39004551    -0.19800
H1346       H  0.15032486  0.72395649  0.42263225     0.15900
F1347       F  0.19387907  0.77666598  0.35061948    -0.23500
H1348       H  0.15060638  0.77505134  0.31831453     0.17700
C1349       C  0.42775604  0.72402918  0.31890242    -0.27500
C1350       C  0.41270432  0.74682874  0.32120723     0.06100
C1351       C  0.42048091  0.76919464  0.30341624     0.25700
C1352       C  0.44329612  0.76892050  0.28478565    -0.12000
C1353       C  0.45863509  0.74638920  0.28336054    -0.26000
C1354       C  0.45050962  0.72378120  0.30022817     0.36500
C1355       C  0.39055258  0.74773904  0.34474039     0.06100
F1356       F  0.40713197  0.79190224  0.30609192    -0.19800
H1357       H  0.44981645  0.78685654  0.27329279     0.15900
F1358       F  0.46520271  0.70183607  0.29982821    -0.23500
H1359       H  0.42224129  0.70659507  0.33245211     0.17700
C1360       C  0.36587310  0.75574954  0.33483643     0.25700
C1361       C  0.34537027  0.75592310  0.35765978    -0.12000
C1362       C  0.34914858  0.74862072  0.39096168    -0.26000
C1363       C  0.37411535  0.74113310  0.40080595     0.36600
C1364       C  0.39433317  0.74051585  0.37789617    -0.27700
F1365       F  0.36145946  0.76291115  0.30298036    -0.19800
H1366       H  0.32655727  0.76198222  0.34928720     0.15900
F1367       F  0.37914919  0.73402017  0.43254198    -0.23500
H1368       H  0.41320995  0.73458028  0.38622292     0.17700
C1369       C  0.27451412  0.92117212  0.31665827    -0.27500
C1370       C  0.25377242  0.90680681  0.32944658     0.06100
C1371       C  0.22870841  0.91546367  0.32328489     0.25700
C1372       C  0.22447390  0.93744547  0.30339358    -0.12000
C1373       C  0.24513310  0.95131203  0.28894120    -0.26000
C1374       C  0.27033381  0.94318931  0.29661243     0.36500
C1375       C  0.25815185  0.88323959  0.35004280     0.06100
F1376       F  0.20831083  0.90278955  0.33691214    -0.19800
H1377       H  0.20484500  0.94358222  0.29934365     0.15900
F1378       F  0.29106952  0.95576327  0.28410655    -0.23500
H1379       H  0.29401115  0.91501313  0.32173077     0.17700
C1380       C  0.25057290  0.85827357  0.33903238     0.25700
C1381       C  0.25259893  0.83648610  0.36004774    -0.12000
C1382       C  0.26195943  0.83932936  0.39252661    -0.26000
C1383       C  0.27047556  0.86433496  0.40285982     0.36600
C1384       C  0.26864408  0.88592463  0.38173227    -0.27700
F1385       F  0.24093317  0.85509302  0.30807639    -0.19800
H1386       H  0.24603305  0.81759188  0.35128713     0.15900
F1387       F  0.28037598  0.86811865  0.43358588    -0.23500
H1388       H  0.27470869  0.90499547  0.39051354     0.17700
C1389       C  0.25422747  0.56649027  0.33799601    -0.27500
C1390       C  0.24951504  0.59184513  0.32564964     0.06100
C1391       C  0.24194914  0.59452905  0.29239422     0.25700
C1392       C  0.23890232  0.57244698  0.27228728    -0.12000
C1393       C  0.24300331  0.54711846  0.28482108    -0.26000
C1394       C  0.25081705  0.54431501  0.31791804     0.36500
C1395       C  0.25141758  0.61522678  0.34777504     0.06100
F1396       F  0.23635423  0.61841579  0.27964280    -0.19800
H1397       H  0.23293904  0.57517276  0.24683385     0.15900
F1398       F  0.25386272  0.52017427  0.33136238    -0.23500
H1399       H  0.26024246  0.56380439  0.36342983     0.17700
C1400       C  0.24016294  0.61494719  0.37952190     0.25700
C1401       C  0.24201980  0.63679763  0.40022849    -0.12000
C1402       C  0.25488853  0.65967790  0.38990063    -0.26000
C1403       C  0.26553478  0.66032798  0.35781563     0.36600
C1404       C  0.26399201  0.63821889  0.33714065    -0.27700
F1405       F  0.22683392  0.59374067  0.39038531    -0.19800
H1406       H  0.23319377  0.63580346  0.42457222     0.15900
F1407       F  0.27819715  0.68189025  0.34685329    -0.23500
H1408       H  0.27300533  0.63894871  0.31291958     0.17700
O1409       O  0.75828401  0.20554806  0.40275467    -0.85800
O1410       O  0.76042584  0.20406811  0.59237038    -0.86000
O1411       O  0.80297818  0.17526836  0.49789795    -0.87700
O1412       O  0.71978584  0.17519244  0.49966669    -0.86400
O1413       O  0.68890198  0.20703218  0.49869493    -0.86000
O1414       O  0.83372299  0.20729770  0.49791706    -0.87400
O1415       O  0.76171731  0.17391846  0.55016614    -0.85800
O1416       O  0.75906803  0.17484349  0.44436787    -0.85400
Zr1417     Zr  0.76123859  0.19675812  0.49736787     2.84300
O1418       O  0.73525306  0.22227754  0.53189102    -1.07400
O1419       O  0.78669676  0.22288391  0.46274249    -1.08100
C1420       C  0.75759464  0.18158360  0.41364545     1.07300
C1421       C  0.76117662  0.18022214  0.58116812     1.07200
C1422       C  0.82653771  0.18319732  0.49861428     1.10200
C1423       C  0.69622326  0.18294631  0.49964527     1.08000
H1424       H  0.79774594  0.21141061  0.54484129     0.33600
O1425       O  0.78690052  0.22250751  0.53150556    -1.28400
H1426       H  0.72411508  0.21209622  0.45015757     0.33200
O1427       O  0.73534172  0.22287608  0.46342998    -1.30000
O1428       O  0.76133717  0.29122146  0.59348098    -0.85800
O1429       O  0.75984892  0.29373603  0.40416418    -0.87300
O1430       O  0.83376506  0.24844470  0.55043253    -0.85900
O1431       O  0.68859681  0.24959558  0.55053394    -0.85900
O1432       O  0.68814484  0.25047019  0.44520323    -0.85600
O1433       O  0.83292292  0.24848126  0.44294470    -0.85500
O1434       O  0.80307672  0.32224888  0.50051836    -0.85800
O1435       O  0.72015774  0.32311716  0.50017101    -0.85300
O1436       O  0.83416047  0.29073243  0.49923487    -0.86400
O1437       O  0.68917239  0.29132737  0.49877015    -0.85500
O1438       O  0.80405588  0.24778443  0.59258625    -0.85900
O1439       O  0.80298149  0.24883584  0.40141870    -0.85600
O1440       O  0.71783200  0.25235645  0.40299925    -0.85300
O1441       O  0.71791563  0.24910308  0.59273058    -0.85700
O1442       O  0.76310800  0.32246619  0.55248499    -0.86000
O1443       O  0.76197957  0.32417976  0.44619213    -0.87300
Zr1444     Zr  0.76105665  0.24804048  0.56664734     2.83100
Zr1445     Zr  0.76069788  0.24951418  0.42894506     2.83500
Zr1446     Zr  0.81211409  0.24900479  0.49714230     2.84100
Zr1447     Zr  0.71035471  0.24913946  0.49788615     2.83400
Zr1448     Zr  0.76151051  0.30112005  0.49876618     2.84200
O1449       O  0.73556652  0.27578017  0.46412648    -1.07900
O1450       O  0.78686507  0.27459541  0.53235670    -1.07400
C1451       C  0.76242249  0.31519323  0.58309479     1.07300
C1452       C  0.76078103  0.31755287  0.41536702     1.09900
C1453       C  0.82751766  0.24776187  0.58144235     1.07400
C1454       C  0.69458381  0.24982489  0.58145431     1.07800
C1455       C  0.69444922  0.25189945  0.41429043     1.07400
C1456       C  0.82645864  0.24832804  0.41204608     1.06900
C1457       C  0.82668793  0.31476388  0.50048236     1.07400
C1458       C  0.69655252  0.31541104  0.49985004     1.06900
H1459       H  0.79777087  0.28667767  0.45001632     0.33500
O1460       O  0.78685354  0.27555778  0.46338983    -1.29000
H1461       H  0.72496661  0.28592099  0.54628319     0.33600
O1462       O  0.73572895  0.27488305  0.53260884    -1.30400
N1463       N  0.97101609  0.50016354  0.50853011    -0.35900
N1464       N  0.50974516  0.45712826  0.50475906    -0.56500
N1465       N  0.54860211  0.49734495  0.51001529    -0.35900
N1466       N  0.51022478  0.04032519  0.51507222    -0.56500
C1467       C  0.95668601  0.47897577  0.50094674     0.27700
C1468       C  0.95566325  0.02002042  0.51449328     0.27700
C1469       C  0.56331901  0.47613260  0.50378100     0.27600
C1470       C  0.56454920  0.02150139  0.51178364     0.27600
C1471       C  0.98869981  0.44470020  0.51471922     0.36300
C1472       C  0.53009193  0.44202797  0.51242671     0.36300
C1473       C  0.98913468  0.05387335  0.52349370     0.36300
C1474       C  0.53097236  0.05610725  0.51740850     0.36300
C1475       C  0.93336892  0.48689201  0.48778947    -0.21200
C1476       C  0.93172301  0.01255329  0.50289494    -0.21200
C1477       C  0.58750930  0.48398122  0.49320960    -0.21200
C1478       C  0.58929300  0.01356970  0.50378547    -0.21200
C1479       C  0.99564251  0.41985082  0.52517957    -0.22300
C1480       C  0.52207199  0.41707390  0.52106333    -0.22300
C1481       C  0.99711074  0.07918695  0.53040457    -0.22300
C1482       C  0.52338806  0.08185318  0.52196071    -0.22300
C1483       C  0.96342046  0.45281691  0.50783925    -0.17600
C1484       C  0.96339810  0.04614385  0.51959939    -0.17600
C1485       C  0.55670850  0.04786974  0.51424128    -0.17600
C1486       C  0.55584008  0.44992489  0.50881791    -0.17600
H1487       H  0.91764508  0.47458364  0.47973384     0.15300
H1488       H  0.91600780  0.02513739  0.49563455     0.15300
H1489       H  0.60363819  0.47164896  0.48660933     0.15300
H1490       H  0.60565534  0.02581557  0.49784662     0.15300
H1491       H  0.98305741  0.40363537  0.53115438     0.13600
H1492       H  0.53396482  0.40055495  0.52777475     0.13600
H1493       H  0.98523049  0.09609896  0.53555332     0.13600
H1494       H  0.53552906  0.09895153  0.52444363     0.13600
H1495       H  0.98777377  0.50009734  0.52243632     0.26800
H1496       H  0.53078718  0.49737906  0.52175554     0.26800
O1497       O  0.98515147  0.45650472  0.90347296    -0.85800
O1498       O  0.98884489  0.45756487  0.09333976    -0.86000
O1499       O  0.53015051  0.42518472  0.99620179    -0.87700
O1500       O  0.94489418  0.42705471  0.00143402    -0.86400
O1501       O  0.91378077  0.45865889  0.00245597    -0.86000
O1502       O  0.56107909  0.45705651  0.99647773    -0.87400
O1503       O  0.98653393  0.42702177  0.05167645    -0.85800
O1504       O  0.98414237  0.42600362  0.94531556    -0.85400
Zr1505     Zr  0.98618791  0.44844198  0.99822824     2.84300
O1506       O  0.96148081  0.47452038  0.03346474    -1.07400
O1507       O  0.51342056  0.47200480  0.96292331    -1.08100
C1508       C  0.98437301  0.43265299  0.91447230     1.07300
C1509       C  0.98769009  0.43375109  0.08245780     1.07200
C1510       C  0.55375791  0.43295586  0.99606923     1.10200
C1511       C  0.92131692  0.43461687  0.00266959     1.08000
H1512       H  0.52503224  0.46149185  0.04441103     0.33600
O1513       O  0.51403097  0.47238389  0.03107947    -1.28400
H1514       H  0.94880920  0.46347779  0.95197374     0.33200
O1515       O  0.96001509  0.47445993  0.96498025    -1.30000
O1516       O  0.98840793  0.04382323  0.09261875    -0.85800
O1517       O  0.98704342  0.04058295  0.90311030    -0.87300
O1518       O  0.56051334  0.49900890  0.04967206    -0.85900
O1519       O  0.91610519  0.50137776  0.05598422    -0.85900
O1520       O  0.91381218  0.50181249  0.94666695    -0.85600
O1521       O  0.56026697  0.49475512  0.94285238    -0.85500
O1522       O  0.52827173  0.07427656  0.99954335    -0.85800
O1523       O  0.94664936  0.07208207  0.00006769    -0.85300
O1524       O  0.55927557  0.04265655  0.99694512    -0.86400
O1525       O  0.91607134  0.03993446  0.99991444    -0.85500
O1526       O  0.53095745  0.49821577  0.09203931    -0.85900
O1527       O  0.53035595  0.99947396  0.90135669    -0.85600
O1528       O  0.94652875  0.99704096  0.90407144    -0.85300
O1529       O  0.94749205  0.50037176  0.09586721    -0.85700
O1530       O  0.98841435  0.07389599  0.05036230    -0.86000
O1531       O  0.98570953  0.07170503  0.94427338    -0.87300
Zr1532     Zr  0.98846011  0.50056347  0.06645244     2.83100
Zr1533     Zr  0.98574641  0.50020300  0.92949784     2.83500
Zr1534     Zr  0.53903921  0.49867923  0.99623368     2.84100
Zr1535     Zr  0.93533473  0.50072418  0.00042790     2.83400
Zr1536     Zr  0.98892569  0.05080578  0.99789019     2.84200
O1537       O  0.96352881  0.02408506  0.96429468    -1.07900
O1538       O  0.51297885  0.02531300  0.03162122    -1.07400
C1539       C  0.98808925  0.06765793  0.08135583     1.07300
C1540       C  0.98535353  0.06458600  0.91359371     1.09900
C1541       C  0.55430868  0.49872992  0.08071621     1.07400
C1542       C  0.92380971  0.50105715  0.08649168     1.07800
C1543       C  0.92304707  0.99813441  0.91491536     1.07400
C1544       C  0.55366212  0.99727192  0.91221492     1.06900
C1545       C  0.55193977  0.06672329  0.99864556     1.07400
C1546       C  0.92302137  0.06410475  0.00082200     1.06900
H1547       H  0.52396771  0.03846083  0.94964185     0.33500
O1548       O  0.51315483  0.02713715  0.96283520    -1.29000
H1549       H  0.95242546  0.03636707  0.04591136     0.33600
O1550       O  0.96327599  0.02518518  0.03261069    -1.30400
N1551       N  0.69970898  0.24999624  0.00240456    -0.35900
N1552       N  0.73803560  0.20926993  0.01005046    -0.56500
N1553       N  0.77766103  0.24863064  0.01215887    -0.35900
N1554       N  0.73923940  0.28943080  0.00086505    -0.56500
C1555       C  0.68563788  0.22840772  0.99580224     0.27700
C1556       C  0.68642343  0.27073448  0.99074586     0.27700
C1557       C  0.79207548  0.22688238  0.00761967     0.27600
C1558       C  0.79266051  0.26933539  0.00449222     0.27600
C1559       C  0.71668115  0.19478974  0.01490412     0.36300
C1560       C  0.75809073  0.19388961  0.01822714     0.36300
C1561       C  0.71849424  0.30522864  0.00270782     0.36300
C1562       C  0.75972828  0.30444270  0.00836704     0.36300
C1563       C  0.66318674  0.23547486  0.97972454    -0.21200
C1564       C  0.66370838  0.26223166  0.97648075    -0.21200
C1565       C  0.81659067  0.23391590  0.99738505    -0.21200
C1566       C  0.81697979  0.26074956  0.99548790    -0.21200
C1567       C  0.72317621  0.17009875  0.02639371    -0.22300
C1568       C  0.74950482  0.16948290  0.02829966    -0.22300
C1569       C  0.72586472  0.33044109  0.01119717    -0.22300
C1570       C  0.75207159  0.32997016  0.01459310    -0.22300
C1571       C  0.69174686  0.20271686  0.00582387    -0.17600
C1572       C  0.69319756  0.29723137  0.99539985    -0.17600
C1573       C  0.78541005  0.29582665  0.00714191    -0.17600
C1574       C  0.78403648  0.20094458  0.01386268    -0.17600
H1575       H  0.64786252  0.22270757  0.97153722     0.15300
H1576       H  0.64885531  0.27412949  0.96539325     0.15300
H1577       H  0.83259591  0.22106959  0.99199461     0.15300
H1578       H  0.83333228  0.27259472  0.98831770     0.15300
H1579       H  0.71034651  0.15398084  0.03189299     0.13600
H1580       H  0.76102955  0.15287435  0.03568451     0.13600
H1581       H  0.71371979  0.34742451  0.01453311     0.13600
H1582       H  0.76412444  0.34652496  0.02081712     0.13600
H1583       H  0.71562839  0.25079882  0.01783838     0.26800
H1584       H  0.75960834  0.24959903  0.02318773     0.26800
C1585       C  0.53429581  0.24782418  0.27087944     0.87200
C1586       C  0.53309801  0.22496978  0.24596346    -0.53100
C1587       C  0.00910258  0.22660198  0.22688734     0.10100
C1588       C  0.99170503  0.25082918  0.23178592     0.21000
C1589       C  0.53099708  0.27243109  0.25004253    -0.53800
C1590       C  0.00963650  0.27467391  0.22641275     0.10200
C1591       C  0.00679969  0.25084823  0.28881141    -0.53300
C1592       C  0.98551258  0.25096276  0.26914367     0.10800
H1593       H  0.54739131  0.20953268  0.24552983     0.15300
H1594       H  0.97446073  0.25049968  0.21575676     0.01000
H1595       H  0.54462076  0.28851598  0.25124571     0.15600
H1596       H  0.00489957  0.24963440  0.31549032     0.15400
C1597       C  0.71619138  0.49626577  0.22232760     0.87200
C1598       C  0.71805718  0.47411872  0.24775446    -0.53100
C1599       C  0.73952012  0.47486336  0.26704075     0.10100
C1600       C  0.75736406  0.49822611  0.25943478     0.21000
C1601       C  0.71629540  0.02239229  0.24248527    -0.53800
C1602       C  0.73722373  0.02369378  0.26284607     0.10200
C1603       C  0.74182806  0.49489278  0.20282482    -0.53300
C1604       C  0.76335662  0.49583695  0.22219380     0.10800
H1605       H  0.70378717  0.45865747  0.24973132     0.15300
H1606       H  0.77478280  0.49848905  0.27507233     0.01000
H1607       H  0.70167855  0.03752601  0.24176468     0.15600
H1608       H  0.74341989  0.49435546  0.17611012     0.15400
C1609       C  0.53262115  0.24818227  0.72304344     0.87200
C1610       C  0.52935777  0.27281097  0.74429976    -0.53100
C1611       C  0.00887327  0.27275858  0.76937352     0.10100
C1612       C  0.99059313  0.24916749  0.76375131     0.21000
C1613       C  0.52905482  0.22544441  0.74772827    -0.53800
C1614       C  0.00716250  0.22470581  0.77105522     0.10200
C1615       C  0.00828589  0.24680663  0.70768812    -0.53300
C1616       C  0.98606015  0.24811697  0.72587756     0.10800
H1617       H  0.54367252  0.28828724  0.74497083     0.15300
H1618       H  0.97266548  0.25003252  0.77858007     0.01000
H1619       H  0.54226824  0.20940009  0.75111112     0.15600
H1620       H  0.00835400  0.24545659  0.68081011     0.15400
C1621       C  0.71580223  0.49614879  0.77213445     0.87200
C1622       C  0.72109048  0.02469517  0.75171622    -0.53100
C1623       C  0.74232750  0.02307796  0.73175960     0.10100
C1624       C  0.75677748  0.49742890  0.73406577     0.21000
C1625       C  0.71773368  0.47328803  0.74762490    -0.53800
C1626       C  0.73906626  0.47363870  0.72787908     0.10200
C1627       C  0.74148058  0.49533344  0.79109011    -0.53300
C1628       C  0.76278206  0.49607692  0.77129731     0.10800
H1629       H  0.70841874  0.04157670  0.75170615     0.15300
H1630       H  0.77416883  0.49793986  0.71802986     0.01000
H1631       H  0.70378069  0.45746066  0.74694085     0.15600
H1632       H  0.74350734  0.49470311  0.81771920     0.15400
C1633       C  0.61759579  0.01437060  0.11864395    -0.27500
C1634       C  0.61987929  0.49652029  0.14636656     0.06100
C1635       C  0.59627528  0.48527255  0.15636376     0.25700
C1636       C  0.57458307  0.48672714  0.13563905    -0.12000
C1637       C  0.57612912  0.49909000  0.10450645    -0.26000
C1638       C  0.59593178  0.01550883  0.09850388     0.36500
C1639       C  0.64397930  0.49420008  0.16631423     0.06100
F1640       F  0.59438015  0.47198430  0.18539000    -0.19800
H1641       H  0.55687925  0.47736131  0.14339210     0.15900
F1642       F  0.59560412  0.03296271  0.07315407    -0.23500
H1643       H  0.63353382  0.02741969  0.11348979     0.17700
C1644       C  0.66758743  0.48885587  0.15050041     0.25700
C1645       C  0.69062861  0.48933725  0.16816714    -0.12000
C1646       C  0.69104351  0.49485896  0.20241222    -0.26000
C1647       C  0.66713345  0.49840851  0.21863478     0.36600
C1648       C  0.64403109  0.49846024  0.20073511    -0.27700
F1649       F  0.66846792  0.48276489  0.11773823    -0.19800
H1650       H  0.70742070  0.99065407  0.15168602     0.15900
F1651       F  0.66612074  0.50221614  0.25192903    -0.23500
H1652       H  0.62625455  0.50252362  0.21376423     0.17700
C1653       C  0.88527725  0.48743829  0.16507826    -0.27500
C1654       C  0.86212063  0.50005847  0.15739773     0.06100
C1655       C  0.85432906  0.00627639  0.11712851     0.25700
C1656       C  0.87534944  0.00641743  0.09555505    -0.12000
C1657       C  0.90362202  0.50190042  0.11242049    -0.26000
C1658       C  0.90611948  0.48856329  0.14288005     0.36500
C1659       C  0.83867250  0.49596086  0.17736814     0.06100
F1660       F  0.83034508  0.00915457  0.10451731    -0.19800
H1661       H  0.87166836  0.00863824  0.06930293     0.15900
F1662       F  0.92805457  0.47552129  0.15037909    -0.23500
H1663       H  0.88685924  0.47600338  0.18757679     0.17700
C1664       C  0.81905258  0.48001252  0.16474922     0.25700
C1665       C  0.79499368  0.47939748  0.18012532    -0.12000
C1666       C  0.78984694  0.49506441  0.20805059    -0.26000
C1667       C  0.80658552  0.01678111  0.21628547     0.36600
C1668       C  0.82995486  0.01790256  0.19874456    -0.27700
F1669       F  0.82290459  0.46591417  0.13660577    -0.19800
H1670       H  0.78018578  0.46700698  0.16971225     0.15900
F1671       F  0.80120854  0.03550892  0.23916736    -0.23500
H1672       H  0.84337225  0.03359946  0.20385326     0.17700
C1673       C  0.50761520  0.38847119  0.15536205    -0.27500
C1674       C  0.99264830  0.36696048  0.14629087     0.06100
C1675       C  0.97776439  0.36618933  0.11745236     0.25700
C1676       C  0.97542498  0.38842883  0.09777071    -0.12000
C1677       C  0.98785833  0.41190608  0.10640429    -0.26000
C1678       C  0.50498827  0.41061030  0.13500509     0.36500
C1679       C  0.99679182  0.34281627  0.16561985     0.06100
F1680       F  0.96659686  0.34353361  0.10738272    -0.19800
H1681       H  0.96434170  0.38707253  0.07515264     0.15900
F1682       F  0.51778623  0.43289426  0.14297431    -0.23500
H1683       H  0.51934818  0.38977377  0.17741665     0.17700
C1684       C  0.52356566  0.33110052  0.17413850     0.25700
C1685       C  0.52666496  0.30842691  0.19305825    -0.12000
C1686       C  0.00461668  0.29690109  0.20327527    -0.26000
C1687       C  0.97962601  0.30662417  0.19801021     0.36600
C1688       C  0.97585704  0.32943885  0.17951869    -0.27700
F1689       F  0.54467935  0.34306316  0.16132340    -0.19800
H1690       H  0.54598129  0.30122981  0.19683873     0.15900
F1691       F  0.95879172  0.29482119  0.21146350    -0.23500
H1692       H  0.95655101  0.33692548  0.17641264     0.17700
C1693       C  0.01803365  0.16844011  0.16916618    -0.27500
C1694       C  0.99308296  0.15830329  0.16737945     0.06100
C1695       C  0.47382492  0.17073510  0.18232897     0.25700
C1696       C  0.47966185  0.19345594  0.20049693    -0.12000
C1697       C  0.00321865  0.20415333  0.20448655    -0.26000
C1698       C  0.02307733  0.19126073  0.18712091     0.36500
C1699       C  0.98853126  0.13449269  0.14726366     0.06100
F1700       F  0.44898980  0.16285480  0.17995737    -0.19800
H1701       H  0.46417201  0.20367482  0.21292645     0.15900
F1702       F  0.04735415  0.20097272  0.18694666    -0.23500
H1703       H  0.03363683  0.15876550  0.15620590     0.17700
C1704       C  0.97981335  0.13681526  0.11460903     0.25700
C1705       C  0.97912834  0.11488443  0.09384567    -0.12000
C1706       C  0.98711945  0.09005496  0.10515283    -0.26000
C1707       C  0.49767258  0.08500418  0.13885646     0.36600
C1708       C  0.49980320  0.10753860  0.15870592    -0.27700
F1709       F  0.97311979  0.16057985  0.10234468    -0.19800
H1710       H  0.97271580  0.11751816  0.06855785     0.15900
F1711       F  0.50990330  0.06278331  0.14826395    -0.23500
H1712       H  0.51118232  0.10673803  0.18110031     0.17700
C1713       C  0.58803814  0.36800770  0.98621540    -0.27500
C1714       C  0.61308634  0.37480836  0.99531959     0.06100
C1715       C  0.61865686  0.40059615  0.00479598     0.25700
C1716       C  0.59927809  0.41943042  0.00492500    -0.12000
C1717       C  0.57405349  0.41277736  0.99567887    -0.26000
C1718       C  0.56862727  0.38679376  0.98621668     0.36500
C1719       C  0.63333478  0.35484312  0.99484790     0.06100
F1720       F  0.64268843  0.40736861  0.01458912    -0.19800
H1721       H  0.60400062  0.43917269  0.01262099     0.15900
F1722       F  0.54476251  0.37956711  0.97630301    -0.23500
H1723       H  0.58362063  0.34814227  0.97871175     0.17700
C1724       C  0.63209951  0.33346660  0.01656305     0.25700
C1725       C  0.65170855  0.31492390  0.01655226    -0.12000
C1726       C  0.67242434  0.31708067  0.99431072    -0.26000
C1727       C  0.67311011  0.33798511  0.97166496     0.36600
C1728       C  0.65383697  0.35697923  0.97235579    -0.27700
F1729       F  0.61218436  0.33084164  0.03814827    -0.19800
H1730       H  0.65083279  0.29884124  0.03400917     0.15900
F1731       F  0.69231093  0.33993894  0.94893253    -0.23500
H1732       H  0.65468429  0.37319563  0.95509572     0.17700
C1733       C  0.85762279  0.39925577  0.99785686    -0.27500
C1734       C  0.86489259  0.37367057  0.00609498     0.06100
C1735       C  0.89064273  0.36824071  0.01354102     0.25700
C1736       C  0.90879811  0.38825955  0.01271079    -0.12000
C1737       C  0.90160641  0.41395455  0.00432106    -0.26000
C1738       C  0.87572909  0.41929848  0.99697099     0.36500
C1739       C  0.84536944  0.35288293  0.00621828     0.06100
F1740       F  0.89838751  0.34351785  0.02068499    -0.19800
H1741       H  0.92855772  0.38354691  0.01851623     0.15900
F1742       F  0.86789384  0.44366906  0.98825897    -0.23500
H1743       H  0.83778907  0.40371836  0.99212881     0.17700
C1744       C  0.84171961  0.33687125  0.03417282     0.25700
C1745       C  0.82207519  0.31830510  0.03439799    -0.12000
C1746       C  0.80595582  0.31564509  0.00687215    -0.26000
C1747       C  0.80980096  0.33132082  0.97880797     0.36600
C1748       C  0.82939421  0.34985407  0.97854034    -0.27700
F1749       F  0.85654882  0.33975942  0.06154299    -0.19800
H1750       H  0.81923046  0.30613031  0.05608198     0.15900
F1751       F  0.79466106  0.32853658  0.95171615    -0.23500
H1752       H  0.83210955  0.36192629  0.95673521     0.17700
C1753       C  0.83985484  0.15773347  0.03853512    -0.27500
C1754       C  0.84246233  0.14180588  0.01034633     0.06100
C1755       C  0.82539870  0.14495597  0.98374095     0.25700
C1756       C  0.80614834  0.16395760  0.98530153    -0.12000
C1757       C  0.80365815  0.17995944  0.01339328    -0.26000
C1758       C  0.82052912  0.17669150  0.04011913     0.36500
C1759       C  0.86306246  0.12201258  0.00865885     0.06100
F1760       F  0.82786170  0.13016946  0.95592445    -0.19800
H1761       H  0.79337629  0.16650673  0.96441961     0.15900
F1762       F  0.81829718  0.19189881  0.06758339    -0.23500
H1763       H  0.85278783  0.15541458  0.05929088     0.17700
C1764       C  0.88899428  0.12948530  0.00972676     0.25700
C1765       C  0.90836276  0.11064944  0.00697160    -0.12000
C1766       C  0.90222571  0.08395614  0.00350028    -0.26000
C1767       C  0.87601025  0.07654509  0.00331991     0.36600
C1768       C  0.85675831  0.09548741  0.00555081    -0.27700
F1769       F  0.89556570  0.15509206  0.01265194    -0.19800
H1770       H  0.92819347  0.11704359  0.00757414     0.15900
F1771       F  0.86874290  0.05106778  0.00105370    -0.23500
H1772       H  0.83680666  0.08943432  0.00506758     0.17700
C1773       C  0.65120842  0.14506830  0.97951121    -0.27500
C1774       C  0.63111642  0.14606583  0.00282910     0.06100
C1775       C  0.63119294  0.16566669  0.02732987     0.25700
C1776       C  0.65109153  0.18397842  0.02831429    -0.12000
C1777       C  0.67110321  0.18288179  0.00500716    -0.26000
C1778       C  0.67102402  0.16344286  0.98044457     0.36500
C1779       C  0.61066386  0.12606956  0.00191123     0.06100
F1780       F  0.61243069  0.16667385  0.05076362    -0.19800
H1781       H  0.65100891  0.19898782  0.04730917     0.15900
F1782       F  0.68995579  0.16252350  0.95722410    -0.23500
H1783       H  0.65138351  0.13015638  0.96039583     0.17700
C1784       C  0.58461348  0.13313839  0.00081787     0.25700
C1785       C  0.56562658  0.11380757  0.99958987    -0.12000
C1786       C  0.57226442  0.08709350  0.99968073    -0.26000
C1787       C  0.59850604  0.08019446  0.00101153     0.36600
C1788       C  0.61737953  0.09953862  0.00188050    -0.27700
F1789       F  0.57755201  0.15870878  0.00028148    -0.19800
H1790       H  0.54570868  0.11983336  0.99852626     0.15900
F1791       F  0.60614692  0.05480672  0.00185878    -0.23500
H1792       H  0.63738308  0.09377357  0.00299199     0.17700
C1793       C  0.83478235  0.00786639  0.79424747    -0.27500
C1794       C  0.83472629  0.49780379  0.82266194     0.06100
C1795       C  0.81743899  0.47685824  0.82687992     0.25700
C1796       C  0.79481686  0.47575626  0.80857674    -0.12000
C1797       C  0.78887021  0.49543687  0.78569729    -0.26000
C1798       C  0.81154876  0.00795947  0.77651092     0.36500
C1799       C  0.85679553  0.50069170  0.84564802     0.06100
F1800       F  0.82206309  0.45780351  0.84951272    -0.19800
H1801       H  0.78140314  0.45990789  0.81308579     0.15900
F1802       F  0.80976506  0.02276634  0.74871160    -0.23500
H1803       H  0.85087442  0.01929062  0.78518108     0.17700
C1804       C  0.88378240  0.98715722  0.83640836     0.25700
C1805       C  0.90459140  0.98802957  0.85850711    -0.12000
C1806       C  0.90166250  0.99881032  0.89045855    -0.26000
C1807       C  0.87240947  0.50033801  0.90244832     0.36600
C1808       C  0.85222563  0.49951376  0.87987775    -0.27700
F1809       F  0.88686632  0.97562957  0.80633684    -0.19800
H1810       H  0.92277945  0.97959447  0.85097016     0.15900
F1811       F  0.86649749  0.49886031  0.93519354    -0.23500
H1812       H  0.83276858  0.49776458  0.88926765     0.17700
C1813       C  0.64396310  0.49350076  0.79439876    -0.27500
C1814       C  0.64486277  0.99845815  0.83045269     0.06100
C1815       C  0.66843105  0.99523132  0.84680743     0.25700
C1816       C  0.69159898  0.99671926  0.82926467    -0.12000
C1817       C  0.69094918  0.49475861  0.79272532    -0.26000
C1818       C  0.66697561  0.49535773  0.77645966     0.36500
C1819       C  0.62010702  0.99669546  0.84898626     0.06100
F1820       F  0.66918871  0.99080353  0.87997788    -0.19800
H1821       H  0.70878732  0.99313030  0.84324164     0.15900
F1822       F  0.66577693  0.49751673  0.74296305    -0.23500
H1823       H  0.62595079  0.49383343  0.78107710     0.17700
C1824       C  0.59988455  0.50867863  0.84213508     0.25700
C1825       C  0.57758472  0.50890398  0.86175178    -0.12000
C1826       C  0.57488242  0.99532690  0.88798749    -0.26000
C1827       C  0.59334143  0.97534037  0.89072875     0.36600
C1828       C  0.61561016  0.97594083  0.87116737    -0.27700
F1829       F  0.60291528  0.52742640  0.81863278    -0.19800
H1830       H  0.56317812  0.52381155  0.85756330     0.15900
F1831       F  0.58997259  0.95543178  0.91263210    -0.23500
H1832       H  0.62958945  0.96039278  0.87377130     0.17700
C1833       C  0.97014309  0.17142865  0.81804190    -0.27500
C1834       C  0.99040507  0.15720915  0.83226254     0.06100
C1835       C  0.51557360  0.17520743  0.83214817     0.25700
C1836       C  0.51942457  0.19713187  0.81209548    -0.12000
C1837       C  0.00049284  0.20299445  0.79458618    -0.26000
C1838       C  0.97507533  0.19402139  0.79912496     0.36500
C1839       C  0.98570140  0.13226822  0.85026241     0.06100
F1840       F  0.53473781  0.16741760  0.85262508    -0.19800
H1841       H  0.53758239  0.20745505  0.81348531     0.15900
F1842       F  0.95513093  0.20599571  0.78385959    -0.23500
H1843       H  0.95058286  0.16443134  0.82050680     0.17700
C1844       C  0.97052928  0.13173390  0.87909278     0.25700
C1845       C  0.96943935  0.10906704  0.89849940    -0.12000
C1846       C  0.98310057  0.08633956  0.88935556    -0.26000
C1847       C  0.48337164  0.09017401  0.85761531     0.36600
C1848       C  0.48476096  0.11258586  0.83742566    -0.27700
F1849       F  0.95809022  0.15357551  0.88962930    -0.19800
H1850       H  0.95856132  0.10957714  0.92145578     0.15900
F1851       F  0.47978615  0.06648604  0.84310789    -0.23500
H1852       H  0.48342743  0.11044005  0.81077144     0.17700
C1853       C  0.00301214  0.38773288  0.84350107    -0.27500
C1854       C  0.98863417  0.36507270  0.85085123     0.06100
C1855       C  0.48969998  0.35984779  0.88174223     0.25700
C1856       C  0.48888247  0.38148164  0.90280525    -0.12000
C1857       C  0.98410097  0.41071061  0.89045182    -0.26000
C1858       C  0.00074717  0.41036738  0.86297021     0.36500
C1859       C  0.99323551  0.34052325  0.83162917     0.06100
F1860       F  0.49115204  0.33546890  0.89499041    -0.19800
H1861       H  0.48935876  0.37789359  0.92924682     0.15900
F1862       F  0.01604460  0.43124331  0.85622596    -0.23500
H1863       H  0.01647124  0.38770734  0.82295056     0.17700
C1864       C  0.97298039  0.32566356  0.81823261     0.25700
C1865       C  0.97813332  0.30328988  0.79906634    -0.12000
C1866       C  0.00353084  0.29532899  0.79239253    -0.26000
C1867       C  0.52140078  0.30598648  0.80543017     0.36600
C1868       C  0.51711954  0.32795230  0.82521448    -0.27700
F1869       F  0.94822519  0.33332735  0.82242381    -0.19800
H1870       H  0.96208399  0.29271756  0.78875910     0.15900
F1871       F  0.54480475  0.29432596  0.80648047    -0.23500
H1872       H  0.53258592  0.33534979  0.84049911     0.17700
C1873       C  0.91919874  0.26558397  0.69455430    -0.27500
C1874       C  0.91386722  0.24433140  0.67342245     0.06100
C1875       C  0.93164888  0.22355171  0.67193196     0.25700
C1876       C  0.95464416  0.22471446  0.68976380    -0.12000
C1877       C  0.96035229  0.24633287  0.70992834    -0.26000
C1878       C  0.94219372  0.26659387  0.71267541     0.36500
C1879       C  0.89121697  0.24490264  0.65070855     0.06100
F1880       F  0.92691718  0.20215899  0.65291258    -0.19800
H1881       H  0.96826176  0.20878075  0.68750640     0.15900
F1882       F  0.94738543  0.28816967  0.73102709    -0.23500
H1883       H  0.90611934  0.28202690  0.69584066     0.17700
C1884       C  0.86627525  0.25127516  0.66184624     0.25700
C1885       C  0.84557326  0.25200876  0.63949689    -0.12000
C1886       C  0.84929073  0.24658725  0.60555492    -0.26000
C1887       C  0.87435248  0.24009815  0.59467480     0.36600
C1888       C  0.89484091  0.23945071  0.61690900    -0.27700
F1889       F  0.86179121  0.25631222  0.69439382    -0.19800
H1890       H  0.82664838  0.25699448  0.64876973     0.15900
F1891       F  0.87929162  0.23402347  0.56249248    -0.23500
H1892       H  0.91382695  0.23490453  0.60745532     0.17700
C1893       C  0.65300067  0.25001482  0.65988358    -0.27500
C1894       C  0.62832233  0.25329139  0.64630342     0.06100
C1895       C  0.62589694  0.25589008  0.61186177     0.25700
C1896       C  0.64753874  0.25512610  0.59154184    -0.12000
C1897       C  0.67233157  0.25138638  0.60474556    -0.26000
C1898       C  0.67485208  0.24899550  0.63935811     0.36500
C1899       C  0.60491585  0.25273487  0.66749513     0.06100
F1900       F  0.60242563  0.25807056  0.59755641    -0.19800
H1901       H  0.64460152  0.25711989  0.56510376     0.15900
F1902       F  0.69820615  0.24523814  0.65336731    -0.23500
H1903       H  0.65533803  0.24810290  0.68643349     0.17700
C1904       C  0.60086234  0.23232061  0.69012186     0.25700
C1905       C  0.57777098  0.23050929  0.70773539    -0.12000
C1906       C  0.55788792  0.24900763  0.70328654    -0.26000
C1907       C  0.56237022  0.26976888  0.68089242     0.36600
C1908       C  0.58557701  0.27160202  0.66343163    -0.27700
F1909       F  0.61888041  0.21344262  0.69440875    -0.19800
H1910       H  0.57612568  0.21431880  0.72458976     0.15900
F1911       F  0.54430695  0.28852176  0.67605152    -0.23500
H1912       H  0.58838137  0.28776682  0.64643659     0.17700
C1913       C  0.74983136  0.06516010  0.65493788    -0.27500
C1914       C  0.75730609  0.08941559  0.66864782     0.06100
C1915       C  0.76156038  0.09078913  0.70311680     0.25700
C1916       C  0.75758253  0.06880016  0.72321509    -0.12000
C1917       C  0.74969456  0.04490024  0.70948483    -0.26000
C1918       C  0.74621761  0.04306522  0.67509225     0.36500
C1919       C  0.75968455  0.11322041  0.64714944     0.06100
F1920       F  0.76954755  0.11337775  0.71750561    -0.19800
H1921       H  0.76026638  0.07051274  0.74975054     0.15900
F1922       F  0.73803028  0.02032060  0.66124551    -0.23500
H1923       H  0.74588283  0.06348559  0.62869225     0.17700
C1924       C  0.77164925  0.11188953  0.61582434     0.25700
C1925       C  0.77241900  0.13385941  0.59512355    -0.12000
C1926       C  0.76157140  0.15790347  0.60503569    -0.26000
C1927       C  0.75028622  0.15953412  0.63674590     0.36600
C1928       C  0.74920445  0.13738866  0.65735352    -0.27700
F1929       F  0.78287095  0.08940061  0.60519817    -0.19800
H1930       H  0.78159562  0.13199020  0.57108148     0.15900
F1931       F  0.73926460  0.18212804  0.64731829    -0.23500
H1932       H  0.73942743  0.13900167  0.68100583     0.17700
C1933       C  0.77304761  0.41583415  0.68785835    -0.27500
C1934       C  0.75350115  0.40553330  0.66776051     0.06100
C1935       C  0.72975769  0.41855424  0.66631147     0.25700
C1936       C  0.72562595  0.44128439  0.68487537    -0.12000
C1937       C  0.74498934  0.45142089  0.70537678    -0.26000
C1938       C  0.76879221  0.43847590  0.70678417     0.36500
C1939       C  0.75766043  0.38113882  0.64851596     0.06100
F1940       F  0.71056546  0.40930369  0.64683567    -0.19800
H1941       H  0.70708460  0.45083645  0.68362900     0.15900
F1942       F  0.78731295  0.44671184  0.72795619    -0.23500
H1943       H  0.79134036  0.40585954  0.68964660     0.17700
C1944       C  0.77761020  0.37940146  0.62502541     0.25700
C1945       C  0.77966236  0.35733764  0.60461009    -0.12000
C1946       C  0.76224661  0.33645527  0.60779273    -0.26000
C1947       C  0.74296308  0.33768584  0.63217218     0.36600
C1948       C  0.74065795  0.35992891  0.65225196    -0.27700
F1949       F  0.79423264  0.39959987  0.62060210    -0.19800
H1950       H  0.79451334  0.35678771  0.58571325     0.15900
F1951       F  0.72534105  0.31820060  0.63502878    -0.23500
H1952       H  0.72520062  0.36089015  0.67027290     0.17700
C1953       C  0.89194923  0.15105883  0.49998720    -0.27500
C1954       C  0.88573685  0.12572471  0.51070090     0.06100
C1955       C  0.85994674  0.11938636  0.51742590     0.25700
C1956       C  0.84076075  0.13806454  0.51300883    -0.12000
C1957       C  0.84690740  0.16331572  0.50169998    -0.26000
C1958       C  0.87279905  0.16963135  0.49513955     0.36500
C1959       C  0.90611601  0.10580748  0.51352633     0.06100
F1960       F  0.85316530  0.09496209  0.52740921    -0.19800
H1961       H  0.82107234  0.13273979  0.51862169     0.15900
F1962       F  0.87972561  0.19359102  0.48360956    -0.23500
H1963       H  0.91173716  0.15648530  0.49518927     0.21500
C1964       C  0.92411138  0.10239761  0.48772642     0.25700
C1965       C  0.94276826  0.08301199  0.49001900    -0.12000
C1966       C  0.94372006  0.06678983  0.51790778    -0.26000
C1967       C  0.92603248  0.07018474  0.54382961     0.36600
C1968       C  0.90742788  0.08972634  0.54171814    -0.27700
F1969       F  0.92321133  0.11724279  0.45986125    -0.19800
H1970       H  0.95636679  0.08039477  0.46987980     0.15900
F1971       F  0.92688489  0.05464941  0.57108109    -0.23500
H1972       H  0.89407937  0.09234151  0.56211586     0.17700
C1973       C  0.63186957  0.14893370  0.49370958    -0.27500
C1974       C  0.63779631  0.12399868  0.50591811     0.06100
C1975       C  0.66312479  0.11829881  0.51536613     0.25700
C1976       C  0.68209088  0.13750861  0.51294820    -0.12000
C1977       C  0.67610096  0.16266004  0.50115437    -0.26000
C1978       C  0.65075017  0.16814831  0.49131934     0.36500
C1979       C  0.61730845  0.10419154  0.50827104     0.06100
F1980       F  0.66963863  0.09409605  0.52635467    -0.19800
H1981       H  0.70143912  0.13273198  0.52063784     0.15900
F1982       F  0.64414773  0.19192025  0.47901225    -0.23500
H1983       H  0.61243503  0.15361662  0.48627598     0.17700
C1984       C  0.61245546  0.09092188  0.53817770     0.25700
C1985       C  0.59242600  0.07283077  0.54010797    -0.12000
C1986       C  0.57692405  0.06806738  0.51244635    -0.26000
C1987       C  0.58148371  0.08151408  0.48273568     0.36600
C1988       C  0.60163514  0.09939872  0.48066982    -0.27700
F1989       F  0.62656413  0.09598041  0.56568076    -0.19800
H1990       H  0.58892978  0.06250630  0.56313619     0.15900
F1991       F  0.56659580  0.07710551  0.45575374    -0.23500
H1992       H  0.60507699  0.10951399  0.45747707     0.17700
C1993       C  0.59903578  0.39597179  0.47781015    -0.27500
C1994       C  0.61578692  0.39271539  0.50473484     0.06100
C1995       C  0.61242628  0.40831577  0.53326187     0.25700
C1996       C  0.59269947  0.42675392  0.53461667    -0.12000
C1997       C  0.57595004  0.42963932  0.50782792    -0.26000
C1998       C  0.57913014  0.41416026  0.47941840     0.36500
C1999       C  0.63660541  0.37305296  0.50291468     0.06100
F2000       F  0.62784850  0.40541516  0.56005623    -0.19800
H2001       H  0.59039671  0.43877898  0.55656552     0.15900
F2002       F  0.56328643  0.41711382  0.45304369    -0.23500
H2003       H  0.60156954  0.38467207  0.45530740     0.17700
C2004       C  0.63172773  0.34762311  0.49109776     0.25700
C2005       C  0.65138527  0.32916154  0.48996932    -0.12000
C2006       C  0.67624537  0.33553707  0.50076702    -0.26000
C2007       C  0.68112820  0.36096121  0.51269160     0.36600
C2008       C  0.66152125  0.37955667  0.51334328    -0.27700
F2009       F  0.60781564  0.34031686  0.48145567    -0.19800
H2010       H  0.64704983  0.30975412  0.48068619     0.15900
F2011       F  0.70457946  0.36773245  0.52457091    -0.23500
H2012       H  0.66585248  0.39911324  0.52208038     0.17700
C2013       C  0.85925025  0.38111275  0.50012580    -0.27500
C2014       C  0.88503324  0.37395383  0.50334720     0.06100
C2015       C  0.89168327  0.34747508  0.50625532     0.25700
C2016       C  0.87261861  0.32831258  0.50553312    -0.12000
C2017       C  0.84664848  0.33530597  0.50181172    -0.26000
C2018       C  0.84014394  0.36204728  0.49923141     0.36500
C2019       C  0.90487708  0.39430822  0.50404515     0.06100
F2020       F  0.91655904  0.34024629  0.51036900    -0.19800
H2021       H  0.87825343  0.30800203  0.50793181     0.15900
F2022       F  0.81543841  0.36993918  0.49543586    -0.23500
H2023       H  0.85396625  0.40154573  0.49791094     0.17700
C2024       C  0.92449630  0.39466262  0.48007409     0.25700
C2025       C  0.94351116  0.41383230  0.48138921    -0.12000
C2026       C  0.94306606  0.43276202  0.50655938    -0.26000
C2027       C  0.92320623  0.43268206  0.53019334     0.36600
C2028       C  0.90415114  0.41355218  0.52882724    -0.27700
F2029       F  0.92495074  0.37677171  0.45516707    -0.19800
H2030       H  0.95859748  0.41400590  0.46280700     0.15900
F2031       F  0.92246272  0.45093427  0.55466072    -0.23500
H2032       H  0.88901414  0.41348058  0.54734560     0.17700
C2033       C  0.60604850  0.24961211  0.29486310    -0.27500
C2034       C  0.60490371  0.25446307  0.32909216     0.06100
C2035       C  0.58080785  0.25878825  0.34386542     0.25700
C2036       C  0.55830947  0.25640625  0.32537798    -0.12000
C2037       C  0.55901723  0.24951846  0.29148629    -0.26000
C2038       C  0.58344430  0.24754303  0.27612236     0.36500
C2039       C  0.62849526  0.25370071  0.34980808     0.06100
F2040       F  0.57900303  0.26579780  0.37627064    -0.19800
H2041       H  0.54053953  0.26088419  0.33795396     0.15900
F2042       F  0.58553254  0.24382971  0.24289350    -0.23500
H2043       H  0.62446180  0.24693811  0.28273201     0.17700
C2044       C  0.62942513  0.23707909  0.37751519     0.25700
C2045       C  0.65110949  0.23652269  0.39770335    -0.12000
C2046       C  0.67262423  0.25222629  0.39069611    -0.26000
C2047       C  0.67199419  0.26867125  0.36269283     0.36600
C2048       C  0.65006937  0.26930922  0.34237217    -0.27700
F2049       F  0.60942753  0.22097473  0.38481397    -0.19800
H2050       H  0.65112852  0.22357744  0.41896367     0.15900
F2051       F  0.69199753  0.28485213  0.35579504    -0.23500
H2052       H  0.64971564  0.28234540  0.32122142     0.17700
C2053       C  0.92939842  0.22563244  0.31958225    -0.27500
C2054       C  0.91204303  0.24670364  0.31841914     0.06100
C2055       C  0.91817065  0.26842705  0.29837803     0.25700
C2056       C  0.94168521  0.26937393  0.28122805    -0.12000
C2057       C  0.95928475  0.24865655  0.28344371    -0.26000
C2058       C  0.95276641  0.22660228  0.30242178     0.36500
C2059       C  0.88950032  0.24695907  0.34137130     0.06100
F2060       F  0.90239162  0.28953825  0.29729869    -0.19800
H2061       H  0.94675879  0.28700041  0.26799641     0.15900
F2062       F  0.96947594  0.20635197  0.30527564    -0.23500
H2063       H  0.92517332  0.20866138  0.33473839     0.17700
C2064       C  0.86442726  0.25300927  0.33080648     0.25700
C2065       C  0.84388775  0.25319424  0.35361668    -0.12000
C2066       C  0.84796325  0.24750371  0.38738133    -0.26000
C2067       C  0.87314717  0.24124671  0.39758593     0.36600
C2068       C  0.89343292  0.24104430  0.37490330    -0.27700
F2069       F  0.85967079  0.25821979  0.29842606    -0.19800
H2070       H  0.82483009  0.25798872  0.34486091     0.15900
F2071       F  0.87842526  0.23506536  0.42955738    -0.23500
H2072       H  0.91252352  0.23647705  0.38377754     0.17700
C2073       C  0.77187972  0.41837669  0.31174539    -0.27500
C2074       C  0.75191523  0.40958709  0.33262087     0.06100
C2075       C  0.72900627  0.42418904  0.33405862     0.25700
C2076       C  0.72555018  0.44586197  0.31344280    -0.12000
C2077       C  0.74501249  0.45393439  0.29155361    -0.26000
C2078       C  0.76854804  0.44041826  0.29144566     0.36500
C2079       C  0.75486075  0.38507317  0.35233535     0.06100
F2080       F  0.70993941  0.41762243  0.35554376    -0.19800
H2081       H  0.70744827  0.45628984  0.31432955     0.15900
F2082       F  0.78773866  0.44751293  0.27039961    -0.23500
H2083       H  0.78977396  0.40762729  0.31032485     0.17700
C2084       C  0.73555843  0.36564615  0.35236405     0.25700
C2085       C  0.73817831  0.34304554  0.37170894    -0.12000
C2086       C  0.75994672  0.33940848  0.39147481    -0.26000
C2087       C  0.77950721  0.35841557  0.39097587     0.36600
C2088       C  0.77706097  0.38089941  0.37134400    -0.27700
F2089       F  0.71418744  0.36839631  0.33353448    -0.19800
H2090       H  0.72281365  0.32873366  0.37206001     0.15900
F2091       F  0.80090335  0.35527215  0.40968240    -0.23500
H2092       H  0.79223150  0.39542113  0.37168758     0.17700
C2093       C  0.75441812  0.06696581  0.33708915    -0.27500
C2094       C  0.74644417  0.09181726  0.32614426     0.06100
C2095       C  0.73629125  0.09415338  0.29410446     0.25700
C2096       C  0.73422094  0.07216820  0.27355976    -0.12000
C2097       C  0.74180813  0.04712147  0.28450448    -0.26000
C2098       C  0.75220168  0.04483600  0.31654070     0.36500
C2099       C  0.74870782  0.11521283  0.34807914     0.06100
F2100       F  0.72756378  0.11759206  0.28302024    -0.19800
H2101       H  0.72645058  0.07482802  0.24894645     0.15900
F2102       F  0.75930031  0.02116314  0.32859469    -0.23500
H2103       H  0.76238787  0.06469266  0.36167649     0.17700
C2104       C  0.73832382  0.11501552  0.38028507     0.25700
C2105       C  0.74098308  0.13687358  0.40087765    -0.12000
C2106       C  0.75399929  0.15952760  0.38999352    -0.26000
C2107       C  0.76398246  0.15995547  0.35756981     0.36600
C2108       C  0.76132365  0.13798234  0.33687265    -0.27700
F2109       F  0.72521397  0.09385417  0.39171820    -0.19800
H2110       H  0.73274241  0.13605578  0.42557197     0.15900
F2111       F  0.77721458  0.18108279  0.34636610    -0.23500
H2112       H  0.76962819  0.13852689  0.31222287     0.17700
O2113       O  0.75869591  0.70474039  0.40278638    -0.85800
O2114       O  0.75859833  0.70477894  0.59360350    -0.86000
O2115       O  0.80106856  0.67503709  0.49883840    -0.87700
O2116       O  0.71823265  0.67310708  0.49950786    -0.86400
O2117       O  0.68711848  0.70461048  0.49875871    -0.86000
O2118       O  0.83111409  0.70770383  0.49895041    -0.87400
O2119       O  0.76076701  0.67400233  0.55204153    -0.85800
O2120       O  0.75908476  0.67419132  0.44456146    -0.85400
Zr2121     Zr  0.75923348  0.69599439  0.49831907     2.84300
O2122       O  0.73290793  0.72155006  0.53261547    -1.07400
O2123       O  0.78441561  0.72262706  0.46379401    -1.08100
C2124       C  0.75866139  0.68078530  0.41362260     1.07300
C2125       C  0.76003803  0.68081536  0.58292372     1.07200
C2126       C  0.82445906  0.68339847  0.49950254     1.10200
C2127       C  0.69454964  0.68056679  0.49938941     1.08000
H2128       H  0.79525320  0.71218076  0.54585401     0.33600
O2129       O  0.78416722  0.72289747  0.53234971    -1.28400
H2130       H  0.72258199  0.71033290  0.45029817     0.33200
O2131       O  0.73332854  0.72152607  0.46369745    -1.30000
O2132       O  0.75603604  0.79231117  0.59368202    -0.85800
O2133       O  0.75788417  0.79250795  0.40261433    -0.87300
O2134       O  0.83101935  0.74971398  0.55098266    -0.85900
O2135       O  0.68556567  0.74721428  0.55073944    -0.85900
O2136       O  0.68551340  0.74685566  0.44496897    -0.85600
O2137       O  0.83086571  0.74968147  0.44431802    -0.85500
O2138       O  0.79812048  0.82358390  0.49967831    -0.85800
O2139       O  0.71551740  0.82111814  0.50037900    -0.85300
O2140       O  0.82955120  0.79237869  0.49956117    -0.86400
O2141       O  0.68482141  0.78894931  0.49936603    -0.85500
O2142       O  0.80123728  0.74970135  0.59312747    -0.85900
O2143       O  0.80120446  0.74888492  0.40247430    -0.85600
O2144       O  0.71553633  0.74936378  0.40313569    -0.85300
O2145       O  0.71466282  0.74823220  0.59320031    -0.85700
O2146       O  0.75594989  0.82219554  0.55132710    -0.86000
O2147       O  0.75676238  0.82245510  0.44494052    -0.87300
Zr2148     Zr  0.75802181  0.74850366  0.56729404     2.83100
Zr2149     Zr  0.75845927  0.74857386  0.42907127     2.83500
Zr2150     Zr  0.80921605  0.74953023  0.49794644     2.84100
Zr2151     Zr  0.70741836  0.74729037  0.49786946     2.83400
Zr2152     Zr  0.75740776  0.80039868  0.49810555     2.84200
O2153       O  0.73210782  0.77429572  0.46360650    -1.07900
O2154       O  0.78342972  0.77518550  0.53258262    -1.07400
C2155       C  0.75516460  0.81609882  0.58233455     1.07300
C2156       C  0.75697661  0.81636245  0.41389493     1.09900
C2157       C  0.82472321  0.74957271  0.58196604     1.07400
C2158       C  0.69134148  0.74788256  0.58176113     1.07800
C2159       C  0.69209945  0.74814625  0.41415250     1.07400
C2160       C  0.82462767  0.74947624  0.41334221     1.06900
C2161       C  0.82185163  0.81639775  0.50017651     1.07400
C2162       C  0.69202533  0.81309348  0.50109352     1.06900
H2163       H  0.79444986  0.78662542  0.45025353     0.33500
O2164       O  0.78371374  0.77529180  0.46357123    -1.29000
H2165       H  0.72104874  0.78462463  0.54565392     0.33600
O2166       O  0.73221466  0.77385013  0.53219593    -1.30400
N2167       N  0.96989456  0.99858209  0.52118439    -0.35900
N2168       N  0.51030257  0.95978796  0.52050838    -0.56500
N2169       N  0.54976504  0.00030526  0.51793409    -0.35900
N2170       N  0.50935489  0.53737116  0.50389379    -0.56500
C2171       C  0.95541857  0.97751840  0.51340674     0.27700
C2172       C  0.95712908  0.52149251  0.50029957     0.27700
C2173       C  0.56464642  0.97896976  0.51324484     0.27600
C2174       C  0.56305715  0.51860090  0.50302425     0.27600
C2175       C  0.98804531  0.94288255  0.52370647     0.36300
C2176       C  0.53128047  0.94428433  0.52210353     0.36300
C2177       C  0.98999832  0.55512560  0.51271677     0.36300
C2178       C  0.52966851  0.55250022  0.51169597     0.36300
C2179       C  0.93160407  0.98570263  0.50204198    -0.21200
C2180       C  0.93365842  0.51378959  0.48736006    -0.21200
C2181       C  0.58936526  0.98674507  0.50475205    -0.21200
C2182       C  0.58732682  0.51084035  0.49265661    -0.21200
C2183       C  0.99519715  0.91772471  0.53252220    -0.22300
C2184       C  0.52397028  0.91851812  0.52741172    -0.22300
C2185       C  0.99785594  0.57978170  0.52290333    -0.22300
C2186       C  0.52160996  0.57725140  0.52116402    -0.22300
C2187       C  0.96252865  0.95111435  0.51805209    -0.17600
C2188       C  0.96437834  0.54763552  0.50664701    -0.17600
C2189       C  0.55540731  0.54479373  0.50768621    -0.17600
C2190       C  0.55693457  0.95266554  0.51744147    -0.17600
H2191       H  0.91570262  0.97360249  0.49407397     0.15300
H2192       H  0.91821171  0.52625167  0.47891629     0.15300
H2193       H  0.60582768  0.97440800  0.49977709     0.15300
H2194       H  0.60331060  0.52323511  0.48560052     0.15300
H2195       H  0.98272172  0.90119900  0.53739906     0.13600
H2196       H  0.53627020  0.90152231  0.52934034     0.13600
H2197       H  0.98589422  0.59643154  0.52900367     0.13600
H2198       H  0.53347375  0.59371879  0.52828175     0.13600
H2199       H  0.98729040  0.99834290  0.53368289     0.26800
H2200       H  0.53140386  0.00048573  0.52780710     0.26800
O2201       O  0.98943106  0.95296094  0.90522168    -0.85800
O2202       O  0.98729498  0.95608240  0.09520376    -0.86000
O2203       O  0.52996185  0.92694652  0.99122255    -0.87700
O2204       O  0.94792735  0.92434537  0.00386388    -0.86400
O2205       O  0.91719994  0.95639475  0.00274370    -0.86000
O2206       O  0.56084776  0.95868775  0.99442070    -0.87400
O2207       O  0.98788237  0.92514796  0.05390026    -0.85800
O2208       O  0.98869052  0.92297598  0.94758137    -0.85400
Zr2209     Zr  0.98921159  0.94609185  0.00026234     2.84300
O2210       O  0.96321921  0.97254218  0.03379139    -1.07400
O2211       O  0.51333748  0.97452657  0.96098512    -1.08100
C2212       C  0.98892625  0.92913996  0.91653035     1.07300
C2213       C  0.98711497  0.93203954  0.08464015     1.07200
C2214       C  0.55359374  0.93464058  0.99204436     1.10200
C2215       C  0.92446233  0.93235915  0.00427693     1.08000
H2216       H  0.52443038  0.96133975  0.04215409     0.33600
O2217       O  0.51347037  0.97264062  0.02931456    -1.28400
H2218       H  0.95241658  0.96015346  0.95236312     0.33200
O2219       O  0.96335800  0.97139199  0.96540392    -1.30000
O2220       O  0.99107077  0.54395118  0.09262902    -0.85800
O2221       O  0.98368364  0.54380172  0.90347595    -0.87300
O2222       O  0.55994192  0.99964465  0.04947936    -0.85900
O2223       O  0.91603294  0.00042881  0.05225581    -0.85900
O2224       O  0.91648229  0.99863452  0.94582189    -0.85600
O2225       O  0.56032373  0.99706813  0.94297116    -0.85500
O2226       O  0.52933872  0.57296237  0.99523421    -0.85800
O2227       O  0.94514417  0.57460803  0.00149713    -0.85300
O2228       O  0.56018415  0.54114161  0.99554800    -0.86400
O2229       O  0.91413187  0.54289984  0.00190920    -0.85500
O2230       O  0.52998619  0.99710344  0.09136606    -0.85900
O2231       O  0.53016109  0.49572927  0.90130111    -0.85600
O2232       O  0.94307958  0.50105994  0.90398748    -0.85300
O2233       O  0.94571299  0.00112018  0.09403325    -0.85700
O2234       O  0.98991529  0.57414076  0.05069443    -0.86000
O2235       O  0.98293957  0.57421755  0.94529803    -0.87300
Zr2236     Zr  0.98849504  0.99942797  0.06776053     2.83100
Zr2237     Zr  0.98923652  0.99725227  0.93034767     2.83500
Zr2238     Zr  0.53852142  0.00013894  0.99611425     2.84100
Zr2239     Zr  0.93810005  0.99839339  0.99911732     2.83400
Zr2240     Zr  0.98653671  0.55236683  0.99789430     2.84200
O2241       O  0.96039613  0.52627792  0.96491457    -1.07900
O2242       O  0.51367972  0.52491322  0.03042767    -1.07400
C2243       C  0.99153963  0.56772598  0.08148603     1.07300
C2244       C  0.98234988  0.56763849  0.91448878     1.09900
C2245       C  0.55338427  0.99841929  0.08034270     1.07400
C2246       C  0.92230313  0.00148811  0.08317633     1.07800
C2247       C  0.91980923  0.50176347  0.91548394     1.07400
C2248       C  0.55352182  0.49409100  0.91213335     1.06900
C2249       C  0.55298188  0.56530713  0.99559905     1.07400
C2250       C  0.92147353  0.56699465  0.00264958     1.06900
H2251       H  0.52447513  0.53529503  0.94744497     0.33500
O2252       O  0.51371271  0.52444836  0.96133742    -1.29000
H2253       H  0.95142854  0.53802027  0.04771816     0.33600
O2254       O  0.96167533  0.52685537  0.03359022    -1.30400
N2255       N  0.69943292  0.75043406  0.00040872    -0.35900
N2256       N  0.73875955  0.71100504  0.00884798    -0.56500
N2257       N  0.77731886  0.75203623  0.01375627    -0.35900
N2258       N  0.73815334  0.79132111  0.00031775    -0.56500
C2259       C  0.68596031  0.72855644  0.99292835     0.27700
C2260       C  0.68536245  0.77113224  0.99022622     0.27700
C2261       C  0.79261188  0.73072316  0.01239672     0.27600
C2262       C  0.79225634  0.77297540  0.00699643     0.27600
C2263       C  0.71782033  0.69552958  0.01171300     0.36300
C2264       C  0.75885065  0.69667237  0.01951922     0.36300
C2265       C  0.71703605  0.80660655  0.00109897     0.36300
C2266       C  0.75829378  0.80729426  0.00613862     0.36300
C2267       C  0.66307718  0.73551573  0.97777837    -0.21200
C2268       C  0.66262094  0.76237905  0.97631357    -0.21200
C2269       C  0.81768254  0.73826842  0.00552874    -0.21200
C2270       C  0.81746934  0.76497248  0.00217871    -0.21200
C2271       C  0.72469094  0.67126509  0.02422897    -0.22300
C2272       C  0.75074621  0.67193623  0.02893189    -0.22300
C2273       C  0.72386263  0.83245209  0.00704440    -0.22300
C2274       C  0.75007700  0.83291449  0.00988407    -0.22300
C2275       C  0.69282092  0.70263502  0.00165066    -0.17600
C2276       C  0.69185029  0.79776387  0.99469258    -0.17600
C2277       C  0.78412474  0.79925753  0.00685052    -0.17600
C2278       C  0.78470923  0.70469980  0.01800705    -0.17600
H2279       H  0.64806495  0.72260110  0.96903668     0.15300
H2280       H  0.64727022  0.77414112  0.96616038     0.15300
H2281       H  0.83442743  0.72585350  0.00315892     0.15300
H2282       H  0.83403656  0.77709914  0.99681894     0.15300
H2283       H  0.71230402  0.65471081  0.02925581     0.13600
H2284       H  0.76244494  0.65599756  0.03802373     0.13600
H2285       H  0.71134204  0.84928595  0.00894974     0.13600
H2286       H  0.76173211  0.85009774  0.01443441     0.13600
H2287       H  0.71557750  0.75140612  0.01536040     0.26800
H2288       H  0.75842811  0.75251894  0.02199963     0.26800
C2289       C  0.53193514  0.74984295  0.27104580     0.87200
C2290       C  0.53117467  0.72611308  0.24769542    -0.53100
C2291       C  0.01060523  0.72453018  0.23143655     0.10100
C2292       C  0.99187523  0.74774263  0.23585980     0.21000
C2293       C  0.52950637  0.77365591  0.24828954    -0.53800
C2294       C  0.00868111  0.77262954  0.23050323     0.10200
C2295       C  0.00651116  0.74875379  0.29314943    -0.53300
C2296       C  0.98528620  0.74750399  0.27326981     0.10800
H2297       H  0.54555911  0.71073380  0.24821870     0.15300
H2298       H  0.97488492  0.74604079  0.21959333     0.01000
H2299       H  0.54322967  0.78968367  0.24874074     0.15600
H2300       H  0.00464228  0.74835449  0.31985364     0.15400
C2301       C  0.71476142  0.99779233  0.22081395     0.87200
C2302       C  0.71663242  0.97486515  0.24500542    -0.53100
C2303       C  0.73768332  0.97523284  0.26506306     0.10100
C2304       C  0.75513847  0.99946869  0.25948572     0.21000
C2305       C  0.71877420  0.52156948  0.24271608    -0.53800
C2306       C  0.74025798  0.52294640  0.26221325     0.10200
C2307       C  0.74071777  0.99746330  0.20213675    -0.53300
C2308       C  0.76178374  0.99831351  0.22227293     0.10800
H2309       H  0.70279118  0.95893075  0.24520911     0.15300
H2310       H  0.77236185  0.99995449  0.27557556     0.01000
H2311       H  0.70455718  0.53707230  0.24171554     0.15600
H2312       H  0.74295146  0.99699119  0.17547878     0.15400
C2313       C  0.53009566  0.74743909  0.72652841     0.87200
C2314       C  0.52809278  0.77148724  0.74914587    -0.53100
C2315       C  0.00801237  0.77117264  0.76638355     0.10100
C2316       C  0.98918368  0.74814487  0.76053129     0.21000
C2317       C  0.52662580  0.72384047  0.74980748    -0.53800
C2318       C  0.00514607  0.72345002  0.76778647     0.10200
C2319       C  0.00706028  0.74536831  0.70464001    -0.53300
C2320       C  0.98486481  0.74734527  0.72277136     0.10800
H2321       H  0.54238126  0.78695467  0.74854537     0.15300
H2322       H  0.97116220  0.74916456  0.77525583     0.01000
H2323       H  0.53895091  0.70681138  0.75012369     0.15600
H2324       H  0.00716911  0.74425498  0.67774916     0.15400
C2325       C  0.71696107  0.00081847  0.77423898     0.87200
C2326       C  0.71804172  0.52097367  0.75068729    -0.53100
C2327       C  0.73936647  0.52173514  0.73071169     0.10100
C2328       C  0.75794708  0.99760827  0.73634130     0.21000
C2329       C  0.71710284  0.97720462  0.75076621    -0.53800
C2330       C  0.73834736  0.97529720  0.73105175     0.10200
C2331       C  0.74247160  0.99875572  0.79332265    -0.53300
C2332       C  0.76394292  0.99682013  0.77379541     0.10800
H2333       H  0.70412563  0.53678805  0.75160518     0.15300
H2334       H  0.77510984  0.99615628  0.72002376     0.01000
H2335       H  0.70173007  0.96280286  0.75024373     0.15600
H2336       H  0.74413916  0.99984925  0.81996937     0.15400
C2337       C  0.62076944  0.51000867  0.11607671    -0.27500
C2338       C  0.61901018  0.99644662  0.14487661     0.06100
C2339       C  0.59764621  0.98026670  0.15154717     0.25700
C2340       C  0.57567179  0.98157744  0.13141953    -0.12000
C2341       C  0.57486022  0.99885543  0.10432158    -0.26000
C2342       C  0.59950520  0.51096122  0.09524784     0.36500
C2343       C  0.64317389  0.99479065  0.16429873     0.06100
F2344       F  0.59847310  0.96245819  0.17647549    -0.19800
H2345       H  0.55975278  0.96842273  0.13617785     0.15900
F2346       F  0.60194870  0.52365295  0.06586711    -0.23500
H2347       H  0.63822059  0.51978097  0.10819432     0.17700
C2348       C  0.66693968  0.99215008  0.14796657     0.25700
C2349       C  0.68994135  0.99302620  0.16570803    -0.12000
C2350       C  0.68995683  0.99652669  0.20039819    -0.26000
C2351       C  0.66590250  0.99823650  0.21675535     0.36600
C2352       C  0.64288557  0.99745050  0.19888057    -0.27700
F2353       F  0.66792171  0.98846580  0.11464214    -0.19800
H2354       H  0.70784136  0.48480876  0.15445422     0.15900
F2355       F  0.66465844  0.00104151  0.25020117    -0.23500
H2356       H  0.62481884  0.99959764  0.21201217     0.17700
C2357       C  0.88300705  0.00116879  0.16370583    -0.27500
C2358       C  0.85790833  0.00291072  0.15132672     0.06100
C2359       C  0.86040605  0.51491335  0.12832440     0.25700
C2360       C  0.88083386  0.51559564  0.10593858    -0.12000
C2361       C  0.90058996  0.00324560  0.10743344    -0.26000
C2362       C  0.90422818  0.00132033  0.14203277     0.36500
C2363       C  0.83523156  0.99978149  0.17336882     0.06100
F2364       F  0.83850959  0.52810503  0.12114832    -0.19800
H2365       H  0.87867256  0.52658402  0.08316263     0.15900
F2366       F  0.92811604  0.99886847  0.15496673    -0.23500
H2367       H  0.88611134  0.99881115  0.19006611     0.17700
C2368       C  0.81760243  0.97951182  0.16727483     0.25700
C2369       C  0.79434832  0.97849761  0.18454923    -0.12000
C2370       C  0.78824879  0.99750917  0.20844102    -0.26000
C2371       C  0.80981275  0.51060103  0.22115199     0.36600
C2372       C  0.83410080  0.51083210  0.20598534    -0.27700
F2373       F  0.82260780  0.96109378  0.14383813    -0.19800
H2374       H  0.78066713  0.96323099  0.17855721     0.15900
F2375       F  0.80544969  0.52705680  0.24697888    -0.23500
H2376       H  0.84888605  0.52373948  0.21543262     0.17700
C2377       C  0.50678587  0.88612366  0.14905901    -0.27500
C2378       C  0.99015029  0.86490883  0.14928089     0.06100
C2379       C  0.97933171  0.86310902  0.11761054     0.25700
C2380       C  0.97740460  0.88531883  0.09766754    -0.12000
C2381       C  0.98622721  0.90994252  0.10869097    -0.26000
C2382       C  0.50446876  0.90822430  0.12874623     0.36500
C2383       C  0.99464800  0.84084418  0.16901196     0.06100
F2384       F  0.97194505  0.83957777  0.10518608    -0.19800
H2385       H  0.96957677  0.88301574  0.07299534     0.15900
F2386       F  0.51811575  0.93008479  0.13621362    -0.23500
H2387       H  0.51891158  0.88713492  0.17078068     0.17700
C2388       C  0.52180016  0.82861076  0.16709224     0.25700
C2389       C  0.52508969  0.80674297  0.18742328    -0.12000
C2390       C  0.00345749  0.79475470  0.20674487    -0.26000
C2391       C  0.97847426  0.80132514  0.19599821     0.36600
C2392       C  0.97424557  0.82408739  0.17734534    -0.27700
F2393       F  0.54260427  0.83927820  0.15181892    -0.19800
H2394       H  0.54428090  0.79899342  0.19055333     0.15900
F2395       F  0.95785997  0.78643446  0.20385437    -0.23500
H2396       H  0.95486025  0.82891844  0.16986426     0.17700
C2397       C  0.02414607  0.67072749  0.16916328    -0.27500
C2398       C  0.00080610  0.65703914  0.16891019     0.06100
C2399       C  0.47831333  0.66648111  0.18658343     0.25700
C2400       C  0.48181416  0.68966724  0.20482685    -0.12000
C2401       C  0.00667388  0.70215204  0.20853035    -0.26000
C2402       C  0.02715629  0.69296821  0.18882928     0.36500
C2403       C  0.99806878  0.63394263  0.14710600     0.06100
F2404       F  0.45498931  0.65459245  0.18679084    -0.19800
H2405       H  0.46605761  0.69722691  0.21960229     0.15900
F2406       F  0.05008608  0.70563894  0.18836128    -0.23500
H2407       H  0.04017124  0.66402872  0.15417883     0.17700
C2408       C  0.00249630  0.63648972  0.11297006     0.25700
C2409       C  0.00055673  0.61480802  0.09226585    -0.12000
C2410       C  0.99430250  0.58991482  0.10499627    -0.26000
C2411       C  0.48694366  0.58600945  0.13821461     0.36600
C2412       C  0.48867996  0.60804470  0.15911416    -0.27700
F2413       F  0.00837086  0.66011063  0.09950273    -0.19800
H2414       H  0.00403697  0.61767574  0.06602355     0.15900
F2415       F  0.48092272  0.56242758  0.15166049    -0.23500
H2416       H  0.48548593  0.60575251  0.18550194     0.17700
C2417       C  0.58732647  0.86908687  0.98429244    -0.27500
C2418       C  0.61288973  0.87625389  0.98984256     0.06100
C2419       C  0.61916093  0.90261061  0.99514348     0.25700
C2420       C  0.59983244  0.92152730  0.99556033    -0.12000
C2421       C  0.57396868  0.91444313  0.99048153    -0.26000
C2422       C  0.56799089  0.88794490  0.98432839     0.36500
C2423       C  0.63282510  0.85596753  0.99066990     0.06100
F2424       F  0.64384849  0.90989361  0.00084286    -0.19800
H2425       H  0.60515451  0.94168574  0.00028113     0.15900
F2426       F  0.54354968  0.88010544  0.97821534    -0.23500
H2427       H  0.58237522  0.84878193  0.97985103     0.17700
C2428       C  0.63246266  0.83681574  0.01559034     0.25700
C2429       C  0.65161584  0.81776961  0.01653362    -0.12000
C2430       C  0.67107504  0.81743630  0.99239054    -0.26000
C2431       C  0.67099824  0.83616080  0.96690254     0.36600
C2432       C  0.65210499  0.85551890  0.96632055    -0.27700
F2433       F  0.61389275  0.83693194  0.03932802    -0.19800
H2434       H  0.65147349  0.80339278  0.03626021     0.15900
F2435       F  0.68929102  0.83574154  0.94283385    -0.23500
H2436       H  0.65233947  0.87003566  0.94676295     0.17700
C2437       C  0.86107013  0.89846277  0.99287598    -0.27500
C2438       C  0.86539886  0.87466457  0.00904487     0.06100
C2439       C  0.88915932  0.86992259  0.02430223     0.25700
C2440       C  0.90847471  0.88882919  0.02277986    -0.12000
C2441       C  0.90414245  0.91260146  0.00628360    -0.26000
C2442       C  0.88019017  0.91734879  0.99150928     0.36500
C2443       C  0.84499638  0.85489256  0.00881297     0.06100
F2444       F  0.89391209  0.84683997  0.03975305    -0.19800
H2445       H  0.92677383  0.88491935  0.03446533     0.15900
F2446       F  0.87544784  0.93990309  0.97484641    -0.23500
H2447       H  0.84278378  0.90237677  0.98115006     0.17700
C2448       C  0.83551580  0.84429655  0.03854169     0.25700
C2449       C  0.81523710  0.82651829  0.03776496    -0.12000
C2450       C  0.80419856  0.81944849  0.00745722    -0.26000
C2451       C  0.81346677  0.83013661  0.97777099     0.36600
C2452       C  0.83385189  0.84772768  0.97849187    -0.27700
F2453       F  0.84537262  0.85165400  0.06822824    -0.19800
H2454       H  0.80812688  0.81816761  0.06071381     0.15900
F2455       F  0.80305502  0.82321921  0.94822874    -0.23500
H2456       H  0.84098567  0.85581506  0.95539393     0.17700
C2457       C  0.83940977  0.66059969  0.04385215    -0.27500
C2458       C  0.84293258  0.64595591  0.01473366     0.06100
C2459       C  0.82709853  0.65037445  0.98727778     0.25700
C2460       C  0.80808978  0.66944999  0.98881097    -0.12000
C2461       C  0.80454041  0.68413013  0.01779157    -0.26000
C2462       C  0.82016299  0.67962548  0.04547741     0.36500
C2463       C  0.86307157  0.62596169  0.01280042     0.06100
F2464       F  0.83037437  0.63653611  0.95883355    -0.19800
H2465       H  0.79617064  0.67296190  0.96731550     0.15900
F2466       F  0.81673502  0.69355563  0.07382766    -0.23500
H2467       H  0.85148793  0.65717980  0.06521453     0.17700
C2468       C  0.88901739  0.63315348  0.01126084     0.25700
C2469       C  0.90792897  0.61396173  0.00760026    -0.12000
C2470       C  0.90119808  0.58728109  0.00568309    -0.26000
C2471       C  0.87493705  0.58030953  0.00749718     0.36600
C2472       C  0.85616156  0.59956722  0.01083495    -0.27700
F2473       F  0.89593640  0.65876401  0.01256439    -0.19800
H2474       H  0.92783921  0.62004760  0.00632939     0.15900
F2475       F  0.86717909  0.55495695  0.00609942    -0.23500
H2476       H  0.83610916  0.59389545  0.01187661     0.17700
C2477       C  0.65481704  0.64137695  0.98003389    -0.27500
C2478       C  0.63261471  0.64473364  0.99955341     0.06100
C2479       C  0.63070697  0.66683324  0.02023764     0.25700
C2480       C  0.65048285  0.68529070  0.02095249    -0.12000
C2481       C  0.67242311  0.68220002  0.00100046    -0.26000
C2482       C  0.67453932  0.65996068  0.98058400     0.36500
C2483       C  0.61198087  0.62471819  0.99874148     0.06100
F2484       F  0.61007425  0.67026976  0.04043768    -0.19800
H2485       H  0.64871819  0.70213039  0.03714873     0.15900
F2486       F  0.69557422  0.65628260  0.96111835    -0.23500
H2487       H  0.65671964  0.62446301  0.96399161     0.17700
C2488       C  0.58611999  0.63165483  0.99387633     0.25700
C2489       C  0.56707842  0.61231815  0.99278379    -0.12000
C2490       C  0.57340442  0.58568344  0.99641878    -0.26000
C2491       C  0.59939905  0.57889759  0.00130735     0.36600
C2492       C  0.61833374  0.59822578  0.00238575    -0.27700
F2493       F  0.57930776  0.65703785  0.98932170    -0.19800
H2494       H  0.54736255  0.61826558  0.98886071     0.15900
F2495       F  0.60671584  0.55362835  0.00543310    -0.23500
H2496       H  0.63810023  0.59246794  0.00640582     0.17700
C2497       C  0.82941282  0.51690022  0.79853139    -0.27500
C2498       C  0.83669694  0.99444535  0.82456199     0.06100
C2499       C  0.81554078  0.97995899  0.83598619     0.25700
C2500       C  0.79268480  0.97962337  0.81811006    -0.12000
C2501       C  0.78999584  0.99429510  0.78883248    -0.26000
C2502       C  0.80655998  0.51578922  0.78016634     0.36500
C2503       C  0.85969582  0.99712161  0.84594103     0.06100
F2504       F  0.81677980  0.96661751  0.86502547    -0.19800
H2505       H  0.77669671  0.96838819  0.82783952     0.15900
F2506       F  0.80086401  0.53554648  0.75896527    -0.23500
H2507       H  0.84227893  0.53336381  0.79516420     0.17700
C2508       C  0.88217932  0.50384598  0.83424802     0.25700
C2509       C  0.90264436  0.50438062  0.85689825    -0.12000
C2510       C  0.89810578  0.50225794  0.89132744    -0.26000
C2511       C  0.87760670  0.00954897  0.89934172     0.36600
C2512       C  0.85697814  0.00857792  0.87734902    -0.27700
F2513       F  0.88724139  0.50560408  0.80128207    -0.19800
H2514       H  0.92205029  0.50625455  0.84741953     0.15900
F2515       F  0.87390780  0.02115035  0.92929026    -0.23500
H2516       H  0.83861723  0.01658579  0.88500796     0.17700
C2517       C  0.64511179  0.00357076  0.79626816    -0.27500
C2518       C  0.64408011  0.49106863  0.82905507     0.06100
C2519       C  0.66785480  0.49001251  0.84541218     0.25700
C2520       C  0.69084700  0.49181844  0.82754754    -0.12000
C2521       C  0.69207915  0.00166829  0.79480670    -0.26000
C2522       C  0.66829779  0.00518156  0.77865889     0.36500
C2523       C  0.61950821  0.49028178  0.84810905     0.06100
F2524       F  0.66900228  0.48791909  0.87893347    -0.19800
H2525       H  0.70822793  0.49080111  0.84177938     0.15900
F2526       F  0.66740222  0.00957332  0.74550053    -0.23500
H2527       H  0.62723137  0.00583997  0.78295910     0.17700
C2528       C  0.60114258  0.01614837  0.84552683     0.25700
C2529       C  0.57864937  0.01527838  0.86466791    -0.12000
C2530       C  0.57474189  0.49119283  0.88802997    -0.26000
C2531       C  0.59394581  0.47232556  0.89342663     0.36600
C2532       C  0.61593301  0.47173597  0.87342797    -0.27700
F2533       F  0.60503527  0.03688327  0.82512731    -0.19800
H2534       H  0.56482435  0.03102147  0.86261710     0.15900
F2535       F  0.59154283  0.45462798  0.91836499    -0.23500
H2536       H  0.63040557  0.45699226  0.87810347     0.17700
C2537       C  0.96879942  0.66770284  0.80838975    -0.27500
C2538       C  0.98784400  0.65740482  0.82908544     0.06100
C2539       C  0.51316850  0.66815780  0.82832648     0.25700
C2540       C  0.51749075  0.69130343  0.81082280    -0.12000
C2541       C  0.99793127  0.70234974  0.79111110    -0.26000
C2542       C  0.97379680  0.69008208  0.78937983     0.36500
C2543       C  0.98283929  0.63397304  0.84917039     0.06100
F2544       F  0.53210747  0.65839302  0.84774397    -0.19800
H2545       H  0.53610131  0.70069942  0.81262842     0.15900
F2546       F  0.95565075  0.69879245  0.76803989    -0.23500
H2547       H  0.95026138  0.65816915  0.80663648     0.17700
C2548       C  0.97552285  0.63677006  0.88236052     0.25700
C2549       C  0.97419583  0.61487528  0.90284310    -0.12000
C2550       C  0.98047182  0.58973729  0.89071882    -0.26000
C2551       C  0.49194259  0.58432506  0.85384417     0.36600
C2552       C  0.49296962  0.60655576  0.83334545    -0.27700
F2553       F  0.97068920  0.66085131  0.89524182    -0.19800
H2554       H  0.96900958  0.61783821  0.92860825     0.15900
F2555       F  0.50053856  0.56110339  0.84179315    -0.23500
H2556       H  0.50070555  0.60480592  0.80847063     0.17700
C2557       C  0.99862218  0.88687875  0.83908128    -0.27500
C2558       C  0.99024346  0.86226484  0.85035576     0.06100
C2559       C  0.47027802  0.86729908  0.87323344     0.25700
C2560       C  0.46956538  0.88958953  0.89341999    -0.12000
C2561       C  0.98846377  0.90669898  0.89269247    -0.26000
C2562       C  0.99760258  0.90896301  0.85986208     0.36500
C2563       C  0.99413908  0.83856106  0.82958093     0.06100
F2564       F  0.45746573  0.84546558  0.88306376    -0.19800
H2565       H  0.45838728  0.88892298  0.91612869     0.15900
F2566       F  0.00663819  0.93214614  0.84825817    -0.23500
H2567       H  0.00648766  0.88884632  0.81430298     0.17700
C2568       C  0.97342986  0.82465926  0.81579829     0.25700
C2569       C  0.97793894  0.80261057  0.79569615    -0.12000
C2570       C  0.00312928  0.79368506  0.78955622    -0.26000
C2571       C  0.52051898  0.80966464  0.80580098     0.36600
C2572       C  0.51529257  0.83289364  0.82281447    -0.27700
F2573       F  0.94892635  0.83269522  0.82123190    -0.19800
H2574       H  0.96167448  0.79292675  0.78443950     0.15900
F2575       F  0.54512746  0.80095542  0.80508559    -0.23500
H2576       H  0.53104266  0.84353813  0.83401839     0.17700
C2577       C  0.92104832  0.77018293  0.68764080    -0.27500
C2578       C  0.91195336  0.74722444  0.67232828     0.06100
C2579       C  0.92626816  0.72397948  0.67590763     0.25700
C2580       C  0.94967385  0.72408574  0.69291884    -0.12000
C2581       C  0.95910592  0.74719469  0.70715792    -0.26000
C2582       C  0.94441196  0.77017527  0.70498187     0.36500
C2583       C  0.88908547  0.74794529  0.65007612     0.06100
F2584       F  0.91772040  0.70117443  0.66259924    -0.19800
H2585       H  0.96066195  0.70614190  0.69465476     0.15900
F2586       F  0.95329170  0.79286973  0.71817632    -0.23500
H2587       H  0.91060095  0.78837580  0.68499440     0.17700
C2588       C  0.86529871  0.75855623  0.66015884     0.25700
C2589       C  0.84419962  0.75866614  0.63837020    -0.12000
C2590       C  0.84658897  0.74878933  0.60589186    -0.26000
C2591       C  0.87062390  0.73853499  0.59590752     0.36600
C2592       C  0.89137193  0.73809592  0.61773644    -0.27700
F2593       F  0.86234385  0.76846724  0.69116213    -0.19800
H2594       H  0.82611966  0.76686299  0.64672945     0.15900
F2595       F  0.87420062  0.72853175  0.56503117    -0.23500
H2596       H  0.90953288  0.73023456  0.60910888     0.17700
C2597       C  0.64926409  0.75081982  0.66004018    -0.27500
C2598       C  0.62445075  0.75013132  0.64623696     0.06100
C2599       C  0.62202536  0.74867320  0.61169378     0.25700
C2600       C  0.64380261  0.74797095  0.59148612    -0.12000
C2601       C  0.66881433  0.74857261  0.60493916    -0.26000
C2602       C  0.67127536  0.75006883  0.63969233     0.36500
C2603       C  0.60105536  0.75008053  0.66760048     0.06100
F2604       F  0.59851245  0.74702685  0.59738396    -0.19800
H2605       H  0.64083265  0.74671292  0.56498120     0.15900
F2606       F  0.69476840  0.75080487  0.65409910    -0.23500
H2607       H  0.65159350  0.75205590  0.68666321     0.17700
C2608       C  0.59836766  0.73194262  0.69343434     0.25700
C2609       C  0.57579569  0.73102220  0.71229342    -0.12000
C2610       C  0.55487536  0.74785041  0.70561233    -0.26000
C2611       C  0.55810858  0.76665417  0.68028246     0.36600
C2612       C  0.58078737  0.76754976  0.66143458    -0.27700
F2613       F  0.61737904  0.71456443  0.70003628    -0.19800
H2614       H  0.57550546  0.71727930  0.73249671     0.15900
F2615       F  0.53935446  0.78434426  0.67379079    -0.23500
H2616       H  0.58258125  0.78205154  0.64198952     0.17700
C2617       C  0.75350124  0.56530182  0.65631933    -0.27500
C2618       C  0.75517191  0.59035665  0.67099422     0.06100
C2619       C  0.75280975  0.59212320  0.70580990     0.25700
C2620       C  0.74779869  0.56975507  0.72490242    -0.12000
C2621       C  0.74583041  0.54497464  0.71006550    -0.26000
C2622       C  0.74933016  0.54281733  0.67565535     0.36500
C2623       C  0.75824967  0.61444618  0.64989954     0.06100
F2624       F  0.75568872  0.61540532  0.72159474    -0.19800
H2625       H  0.74563585  0.57174345  0.75151123     0.15900
F2626       F  0.74759516  0.51912175  0.66056332    -0.23500
H2627       H  0.75470326  0.56310139  0.62967289     0.17700
C2628       C  0.77456032  0.61467370  0.62186423     0.25700
C2629       C  0.77551155  0.63655442  0.60087542    -0.12000
C2630       C  0.76073555  0.65903301  0.60751314    -0.26000
C2631       C  0.74536450  0.65937191  0.63625845     0.36600
C2632       C  0.74392172  0.63725297  0.65686774    -0.27700
F2633       F  0.78969250  0.59378966  0.61464156    -0.19800
H2634       H  0.78777413  0.63585434  0.57911895     0.15900
F2635       F  0.73052357  0.68047537  0.64341624    -0.23500
H2636       H  0.73076366  0.63771525  0.67770217     0.17700
C2637       C  0.76470352  0.91369825  0.69059220    -0.27500
C2638       C  0.74493748  0.90725341  0.66835993     0.06100
C2639       C  0.72355807  0.92403894  0.66601534     0.25700
C2640       C  0.72197926  0.94650383  0.68577721    -0.12000
C2641       C  0.74173562  0.95292746  0.70794067    -0.26000
C2642       C  0.76324521  0.93643515  0.71006379     0.36500
C2643       C  0.74709351  0.88354473  0.64700388     0.06100
F2644       F  0.70384346  0.91838430  0.64526344    -0.19800
H2645       H  0.70511624  0.95883674  0.68405472     0.15900
F2646       F  0.78230024  0.94169744  0.73193936    -0.23500
H2647       H  0.78138244  0.90116312  0.69270083     0.17700
C2648       C  0.74458745  0.88571733  0.61251700     0.25700
C2649       C  0.74733663  0.86376136  0.59228549    -0.12000
C2650       C  0.75245321  0.83877315  0.60561392    -0.26000
C2651       C  0.75473830  0.83649011  0.64032306     0.36600
C2652       C  0.75228202  0.85875697  0.66070460    -0.27700
F2653       F  0.74026055  0.90930202  0.59810300    -0.19800
H2654       H  0.74553409  0.86659159  0.56581153     0.15900
F2655       F  0.75964891  0.81299219  0.65459539    -0.23500
H2656       H  0.75428668  0.85663851  0.68728118     0.17700
C2657       C  0.89059075  0.65248477  0.50346739    -0.27500
C2658       C  0.88448316  0.62581248  0.50556118     0.06100
C2659       C  0.85852312  0.61817345  0.50652707     0.25700
C2660       C  0.83914525  0.63695782  0.50457439    -0.12000
C2661       C  0.84523017  0.66369498  0.50160040    -0.26000
C2662       C  0.87130210  0.67126760  0.50132139     0.36500
C2663       C  0.90528933  0.60614470  0.50615382     0.06100
F2664       F  0.85183488  0.59252194  0.50843285    -0.19800
H2665       H  0.81934101  0.63045331  0.50518752     0.15900
F2666       F  0.87838757  0.69677120  0.49883465    -0.23500
H2667       H  0.91044268  0.65885022  0.50351770     0.21500
C2668       C  0.92577334  0.60743060  0.48326997     0.25700
C2669       C  0.94497680  0.58840477  0.48355772    -0.12000
C2670       C  0.94414934  0.56799245  0.50672970    -0.26000
C2671       C  0.92392725  0.56684485  0.52981508     0.36600
C2672       C  0.90470965  0.58582775  0.52955513    -0.27700
F2673       F  0.92689274  0.62665802  0.46009166    -0.19800
H2674       H  0.96042880  0.58941981  0.46552764     0.15900
F2675       F  0.92286947  0.54736017  0.55263290    -0.23500
H2676       H  0.88944892  0.58476116  0.54783406     0.17700
C2677       C  0.62917145  0.64775896  0.50138318    -0.27500
C2678       C  0.63595999  0.62131636  0.50213526     0.06100
C2679       C  0.66195498  0.61413940  0.50147528     0.25700
C2680       C  0.68097317  0.63344274  0.50034845    -0.12000
C2681       C  0.67429161  0.66016066  0.50003714    -0.26000
C2682       C  0.64801767  0.66706991  0.50048639     0.36500
C2683       C  0.61557347  0.60150194  0.50358827     0.06100
F2684       F  0.66886261  0.58851293  0.50140178    -0.19800
H2685       H  0.70091068  0.62742259  0.49979541     0.15900
F2686       F  0.64028878  0.69243587  0.50028523    -0.23500
H2687       H  0.60912782  0.65346339  0.50190659     0.17700
C2688       C  0.61348208  0.58464692  0.53093331     0.25700
C2689       C  0.59345101  0.56656736  0.53252112    -0.12000
C2690       C  0.57544871  0.56515303  0.50685734    -0.26000
C2691       C  0.57745483  0.58205132  0.47958075     0.36600
C2692       C  0.59737416  0.60024827  0.47809918    -0.27700
F2693       F  0.63048879  0.58605149  0.55628577    -0.19800
H2694       H  0.59202195  0.55350061  0.55358663     0.15900
F2695       F  0.56047203  0.58051619  0.45419751    -0.23500
H2696       H  0.59879070  0.61323787  0.45695328     0.17700
C2697       C  0.60348473  0.90246000  0.48414882    -0.27500
C2698       C  0.61469670  0.89314429  0.51345576     0.06100
C2699       C  0.60754253  0.90431546  0.54405241     0.25700
C2700       C  0.58874219  0.92377323  0.54519891    -0.12000
C2701       C  0.57714172  0.93243497  0.51593775    -0.26000
C2702       C  0.58488755  0.92204890  0.48532402     0.36500
C2703       C  0.63395993  0.87199212  0.51162709     0.06100
F2704       F  0.61823784  0.89601653  0.57281501    -0.19800
H2705       H  0.58304205  0.93198494  0.56888181     0.15900
F2706       F  0.57454343  0.93101009  0.45667215    -0.23500
H2707       H  0.60928236  0.89463441  0.46029855     0.17700
C2708       C  0.62886365  0.84890568  0.49375351     0.25700
C2709       C  0.64771479  0.82961897  0.49062318    -0.12000
C2710       C  0.67195264  0.83316685  0.50502830    -0.26000
C2711       C  0.67675263  0.85593826  0.52370000     0.36600
C2712       C  0.65790900  0.87516459  0.52686433    -0.27700
F2713       F  0.60559198  0.84495212  0.47952555    -0.19800
H2714       H  0.64350592  0.81209588  0.47649566     0.15900
F2715       F  0.69950075  0.85943158  0.53939690    -0.23500
H2716       H  0.66221040  0.89279569  0.54072218     0.17700
C2717       C  0.85515274  0.88258150  0.50760266    -0.27500
C2718       C  0.88106473  0.87517869  0.50568102     0.06100
C2719       C  0.88730129  0.84862541  0.50191253     0.25700
C2720       C  0.86795801  0.82984524  0.49986487    -0.12000
C2721       C  0.84190685  0.83703484  0.50167604    -0.26000
C2722       C  0.83566542  0.86378160  0.50548037     0.36500
C2723       C  0.90162434  0.89501483  0.50838353     0.06100
F2724       F  0.91218174  0.84071501  0.50118139    -0.19800
H2725       H  0.87353683  0.80954183  0.49709989     0.15900
F2726       F  0.81087261  0.87188878  0.50743481    -0.23500
H2727       H  0.85002204  0.90300170  0.51056408     0.17700
C2728       C  0.92131453  0.89638955  0.48444760     0.25700
C2729       C  0.94144393  0.91419853  0.48820489    -0.12000
C2730       C  0.94203297  0.93107691  0.51559193    -0.26000
C2731       C  0.92208921  0.93017510  0.53913964     0.36600
C2732       C  0.90203935  0.91222309  0.53553297    -0.27700
F2733       F  0.92072920  0.88092965  0.45706786    -0.19800
H2734       H  0.95636719  0.91520993  0.46944934     0.15900
F2735       F  0.92199625  0.94681660  0.56540186    -0.23500
H2736       H  0.88700075  0.91149068  0.55415393     0.17700
C2737       C  0.60341819  0.74975382  0.29545358    -0.27500
C2738       C  0.60233851  0.75208938  0.33006170     0.06100
C2739       C  0.57828278  0.75524823  0.34544581     0.25700
C2740       C  0.55573171  0.75482614  0.32676278    -0.12000
C2741       C  0.55643464  0.75106735  0.29210218    -0.26000
C2742       C  0.58083781  0.74934949  0.27663116     0.36500
C2743       C  0.62613824  0.75038198  0.35019243     0.06100
F2744       F  0.57655909  0.75909685  0.37868956    -0.19800
H2745       H  0.53800651  0.75790667  0.34003262     0.15900
F2746       F  0.58289266  0.74690293  0.24320420    -0.23500
H2747       H  0.62178709  0.74763519  0.28302995     0.17700
C2748       C  0.62802701  0.73176948  0.37570616     0.25700
C2749       C  0.64992108  0.73074580  0.39557665    -0.12000
C2750       C  0.67057966  0.74798093  0.39024536    -0.26000
C2751       C  0.66906718  0.76619546  0.36419726     0.36600
C2752       C  0.64699910  0.76730814  0.34428944    -0.27700
F2753       F  0.60870471  0.71443273  0.38129453    -0.19800
H2754       H  0.65067871  0.71652325  0.41546384     0.15900
F2755       F  0.68824365  0.78378368  0.35917401    -0.23500
H2756       H  0.64589466  0.78183098  0.32480526     0.17700
C2757       C  0.93070993  0.72765808  0.33071803    -0.27500
C2758       C  0.91112927  0.74505822  0.32161599     0.06100
C2759       C  0.91506331  0.76145604  0.29405016     0.25700
C2760       C  0.93879845  0.76136467  0.27725582    -0.12000
C2761       C  0.95886952  0.74489644  0.28752995    -0.26000
C2762       C  0.95421185  0.72740865  0.31384583     0.36500
C2763       C  0.88828246  0.74781168  0.34363061     0.06100
F2764       F  0.89669789  0.77879623  0.28483771    -0.19800
H2765       H  0.94193609  0.77531071  0.25762344     0.15900
F2766       F  0.97265512  0.71043077  0.32384544    -0.23500
H2767       H  0.92802380  0.71471233  0.35170927     0.17700
C2768       C  0.86308067  0.74316994  0.33258090     0.25700
C2769       C  0.84231492  0.74416411  0.35504026    -0.12000
C2770       C  0.84631830  0.74988262  0.38885901    -0.26000
C2771       C  0.87164384  0.75539735  0.39932608     0.36600
C2772       C  0.89216993  0.75421369  0.37701222    -0.27700
F2773       F  0.85866748  0.73669730  0.30046777    -0.19800
H2774       H  0.82318810  0.73987973  0.34607443     0.15900
F2775       F  0.87686028  0.76193299  0.43123101    -0.23500
H2776       H  0.91138852  0.75817710  0.38594998     0.17700
C2777       C  0.77031382  0.91649002  0.30571225    -0.27500
C2778       C  0.74998129  0.90605932  0.32469673     0.06100
C2779       C  0.72618129  0.91909843  0.32452258     0.25700
C2780       C  0.72288684  0.94205427  0.30627475    -0.12000
C2781       C  0.74310066  0.95268404  0.28745344    -0.26000
C2782       C  0.76695070  0.93964889  0.28723306     0.36500
C2783       C  0.75358302  0.88289436  0.34677319     0.06100
F2784       F  0.70584160  0.90933172  0.34168533    -0.19800
H2785       H  0.70423681  0.95144715  0.30650847     0.15900
F2786       F  0.78660965  0.94865050  0.26818893    -0.23500
H2787       H  0.78884276  0.90687301  0.30551358     0.17700
C2788       C  0.76183088  0.85827314  0.33499426     0.25700
C2789       C  0.76282193  0.83651777  0.35654678    -0.12000
C2790       C  0.75590475  0.83901268  0.39026027    -0.26000
C2791       C  0.74814165  0.86398114  0.40175911     0.36600
C2792       C  0.74712672  0.88536617  0.38035700    -0.27700
F2793       F  0.76814991  0.85505817  0.30257042    -0.19800
H2794       H  0.76901977  0.81776896  0.34687072     0.15900
F2795       F  0.74082888  0.86792460  0.43372110    -0.23500
H2796       H  0.74090073  0.90409831  0.39011113     0.17700
C2797       C  0.76254847  0.56721601  0.33308328    -0.27500
C2798       C  0.75385318  0.59195831  0.32266692     0.06100
C2799       C  0.74238651  0.59401525  0.29128183     0.25700
C2800       C  0.73891286  0.57172839  0.27151747    -0.12000
C2801       C  0.74643437  0.54671196  0.28257769    -0.26000
C2802       C  0.75883087  0.54483060  0.31346900     0.36500
C2803       C  0.75528533  0.61501076  0.34548877     0.06100
F2804       F  0.73332382  0.61734195  0.28032332    -0.19800
H2805       H  0.72989821  0.57411275  0.24758219     0.15900
F2806       F  0.76614151  0.52130287  0.32576623    -0.23500
H2807       H  0.77173592  0.56509641  0.35696873     0.17700
C2808       C  0.74649377  0.61287239  0.37838432     0.25700
C2809       C  0.74764972  0.63431699  0.39989406    -0.12000
C2810       C  0.75742759  0.65866704  0.38935637    -0.26000
C2811       C  0.76596527  0.66099495  0.35626372     0.36600
C2812       C  0.76491507  0.63935163  0.33465516    -0.27700
F2813       F  0.73607052  0.59016035  0.38960696    -0.19800
H2814       H  0.74051856  0.63184572  0.42496475     0.15900
F2815       F  0.77595373  0.68387852  0.34499421    -0.23500
H2816       H  0.77196836  0.64152115  0.30951230     0.17700
loop_ 
_geom_bond_atom_site_label_1 
_geom_bond_atom_site_label_2 
_geom_bond_distance 
_geom_bond_site_symmetry_2 
_ccdc_geom_bond_type 
O1          Zr37   2.466       .  S
O1           C12   1.298       .  A
O2          Zr36   2.465       .  S
O2           C13   1.298       .  A
O3           Zr9   2.431       .  S
O3           C14   1.291       .  A
O4           Zr9   2.441       .  S
O4           C15   1.293       .  A
O5          Zr39   2.418       .  S
O5           C15   1.288       .  A
O6          Zr38   2.416       .  S
O6           C14   1.288       .  A
O7           Zr9   2.434       .  S
O7           C13   1.292       .  A
O8           Zr9   2.430       .  S
O8           C12   1.292       .  A
Zr9          O10   2.336       .  S
Zr9          O11   2.338       .  S
Zr9          O19   2.340       .  S
Zr9          O17   2.337       .  S
O10         Zr36   2.354       .  S
O10         Zr39   2.336       .  S
O11         Zr37   2.351       .  S
O11         Zr38   2.330       .  S
C12         C698   1.493       .  S
C13         C518   1.482       .  S
C14         C549   1.478       .  S
C15         C569   1.481       .  S
H16          O17   0.966       .  S
O17         Zr36   2.349       .  S
O17         Zr38   2.331       .  S
H18          O19   0.966       .  S
O19         Zr37   2.362       .  S
O19         Zr39   2.336       .  S
O20         Zr36   2.466       .  S
O20          C43   1.298       .  A
O21         Zr37   2.484       .  S
O21          C44   1.301       .  A
O22         Zr38   2.419       .  S
O22          C45   1.289       .  A
O23         Zr39   2.424       .  S
O23          C46   1.291       .  A
O24         Zr39   2.428       .  S
O24          C47   1.291       .  A
O25         Zr38   2.418       .  S
O25          C48   1.288       .  A
O26         Zr40   2.421       .  S
O26          C49   1.288       .  A
O27         Zr40   2.422       .  S
O27          C50   1.288       .  A
O28         Zr38   2.423       .  S
O28          C49   1.290       .  A
O29         Zr39   2.425       .  S
O29          C50   1.290       .  A
O30         Zr36   2.475       .  S
O30          C45   1.299       .  A
O31         Zr37   2.482       .  S
O31          C48   1.301       .  A
O32         Zr37   2.467       .  S
O32          C47   1.298       .  A
O33         Zr36   2.471       .  S
O33          C46   1.298       .  A
O34         Zr40   2.429       .  S
O34          C43   1.292       .  A
O35         Zr40   2.421       .  S
O35          C44   1.289       .  A
Zr36         O42   2.348       .  S
Zr36         O54   2.351       .  S
Zr37         O41   2.353       .  S
Zr37         O52   2.351       .  S
Zr38         O42   2.328       .  S
Zr38         O52   2.331       .  S
Zr39         O41   2.336       .  S
Zr39         O54   2.335       .  S
Zr40         O41   2.336       .  S
Zr40         O42   2.331       .  S
Zr40         O54   2.334       .  S
Zr40         O52   2.338       .  S
C43         C538   1.494       .  S
C44         C678   1.489       .  S
C45         C478   1.494       .  S
C46         C489   1.496       .  S
C47         C638   1.484       .  S
C48         C658   1.501       .  S
C49         C609   1.478       .  S
C50         C598   1.479       .  S
H51          O52   0.966       .  S
H53          O54   0.966       .  S
N55          H87   1.040       .  S
N55          C59   1.349       .  A
N55         C764   1.350       .  A
N56          C64   1.349       .  A
N56        C1471   1.348   1_455  A
N57          H88   1.039       .  S
N57          C61   1.350       .  A
N57         C766   1.349       .  A
N58          C66   1.348       .  A
N58        C1473   1.348   1_455  A
C59          C67   1.387       .  A
C59          C75   1.407       .  A
C60         N759   1.353   1_545  A
C60          C76   1.416       .  A
C60          C68   1.388       .  A
C61          C69   1.387       .  A
C61          C78   1.410       .  A
C62         N761   1.351   1_545  A
C62          C77   1.410       .  A
C62          C70   1.387       .  A
C63        N1464   1.348       .  A
C63          C75   1.408       .  A
C63          C71   1.386       .  A
C64          C78   1.408       .  A
C64          C72   1.385       .  A
C65        N1466   1.349       .  A
C65          C73   1.388       .  A
C65          C76   1.412       .  A
C66          C74   1.386       .  A
C66          C77   1.406       .  A
C67         C772   1.374       .  A
C67          H79   1.083       .  S
C68         C771   1.371   1_545  A
C68          H80   1.082       .  S
C69         C774   1.372       .  A
C69          H81   1.082       .  S
C70         C773   1.372   1_545  A
C70          H82   1.083       .  S
C71        C1480   1.373       .  A
C71          H83   1.082       .  S
C72        C1479   1.372   1_455  A
C72          H84   1.082       .  S
C73        C1482   1.369       .  A
C73          H85   1.082       .  S
C74        C1481   1.369   1_455  A
C74          H86   1.082       .  S
C75         C618   1.473       .  S
C76         C558   1.482       .  S
C77         C578   1.472       .  S
C78         C589   1.479       .  S
O89        Zr125   2.470       .  S
O89         C100   1.298       .  A
O90        Zr124   2.473       .  S
O90         C101   1.299       .  A
O91       Zr1505   2.425   1_455  S
O91         C102   1.289       .  A
O92         Zr97   2.434   1_554  S
O92         C103   1.291       .  A
O93        Zr127   2.406   1_554  S
O93         C103   1.286       .  A
O94        Zr126   2.420       .  S
O94         C102   1.289       .  A
O95         Zr97   2.422   1_554  S
O95         C101   1.290       .  A
O96         Zr97   2.419       .  S
O96         C100   1.290       .  A
Zr97       O1499   2.434       .  S
Zr97         O98   2.336   1_556  S
Zr97        O107   2.337       .  S
Zr97       O1507   2.332       .  S
Zr97       O1513   2.335   1_556  S
O98        Zr124   2.349       .  S
O98        Zr127   2.336   1_554  S
O99        Zr126   2.327       .  S
O99       Zr1505   2.328   1_455  S
O99       Zr1533   2.340   1_455  S
C100        C449   1.494       .  S
C101        C269   1.485       .  S
C102        C309   1.478       .  S
C103        C329   1.477       .  S
H104        O105   0.965       .  S
O105       Zr126   2.327   1_554  S
O105      Zr1505   2.334   1_454  S
O105      Zr1532   2.341   1_455  S
H106        O107   0.965       .  S
O107       Zr125   2.351       .  S
O107       Zr127   2.333       .  S
O108       Zr828   2.470   1_545  S
O108        C131   1.298       .  A
O109       Zr829   2.479       .  S
O109        C132   1.300       .  A
O110       Zr126   2.417   1_554  S
O110        C133   1.289       .  A
O111       Zr127   2.431   1_554  S
O111        C134   1.292       .  A
O112       Zr127   2.438       .  S
O112        C839   1.293       .  A
O113       Zr126   2.406       .  S
O113        C840   1.286       .  A
O114      Zr1536   2.452   1_455  S
O114        C137   1.295       .  A
O115       Zr128   2.441   1_554  S
O115        C138   1.293       .  A
O116       Zr830   2.414   1_545  S
O116        C137   1.287       .  A
O117       Zr831   2.440   1_545  S
O117        C138   1.292   1_556  A
O118      Zr1532   2.453   1_455  S
O118        C133   1.294       .  A
O119      Zr2237   2.472   1_455  S
O119        C136   1.298       .  A
O120       Zr829   2.452       .  S
O120        C135   1.295       .  A
O121       Zr124   2.475       .  S
O121        C134   1.299       .  A
O122       Zr128   2.429   1_554  S
O122        C131   1.291       .  A
O123       Zr128   2.417       .  S
O123        C132   1.290       .  A
Zr124       O812   2.465       .  S
Zr124      O1526   2.466       .  S
Zr124      O1513   2.349       .  S
Zr124      O2242   2.356       .  S
Zr124       O846   2.353       .  S
Zr125       O813   2.470       .  S
Zr125      O2231   2.463       .  S
Zr125       O824   2.466       .  S
Zr125      O1507   2.347       .  S
Zr125       O833   2.349       .  S
Zr125      O2252   2.359       .  S
Zr126       O820   2.414       .  S
Zr126       O834   2.326   1_556  S
Zr126       O844   2.340       .  S
Zr127       O821   2.412       .  S
Zr127       O833   2.330       .  S
Zr127       O846   2.332   1_556  S
Zr128      O1522   2.435       .  S
Zr128       O129   2.336       .  S
Zr128       O142   2.330   1_556  S
Zr128      O1538   2.338   1_556  S
Zr128      O1548   2.347       .  S
O129       Zr829   2.355       .  S
O129       Zr831   2.335   1_545  S
O130      Zr2236   2.351   1_445  S
O130       Zr830   2.338   1_544  S
O130      Zr1536   2.338   1_454  S
C131        C298   1.488       .  S
C132        C438   1.496       .  S
C133        C229   1.478       .  S
C134        C249   1.500       .  S
C135        O816   1.291       .  A
C135        C398   1.484       .  S
C136        O817   1.290       .  A
C136        C418   1.480       .  S
C137        C378   1.486   1_556  S
C138        C358   1.491       .  S
H139        O140   0.966       .  S
O140      Zr2237   2.356   1_445  S
O140       Zr830   2.345   1_545  S
O140      Zr1536   2.345   1_455  S
H141        O142   0.965       .  S
O142       Zr828   2.350   1_545  S
O142       Zr831   2.331   1_544  S
N143        H175   1.040       .  S
N143        C148   1.351   1_554  A
N143        C147   1.351       .  A
N144        C151   1.348       .  A
N144        C152   1.350       .  A
N145        H176   1.040       .  S
N145        C150   1.349       .  A
N145        C149   1.352       .  A
N146        C153   1.348       .  A
N146        C154   1.347       .  A
C147        C155   1.388   1_554  A
C147        C163   1.412       .  A
C148        C164   1.410   1_556  A
C148        C156   1.386       .  A
C149        C157   1.387   1_554  A
C149        C166   1.410       .  A
C150        C165   1.408       .  A
C150        C158   1.387   1_554  A
C151        C163   1.410       .  A
C151        C159   1.387       .  A
C152        C166   1.409       .  A
C152        C160   1.385       .  A
C153        C161   1.387       .  A
C153        C164   1.408       .  A
C154        C162   1.386       .  A
C154        C165   1.405       .  A
C155        C156   1.376       .  A
C155        H167   1.082       .  S
C156        H168   1.083       .  S
C157        C158   1.373       .  A
C157        H169   1.082       .  S
C158        H170   1.082       .  S
C159        C160   1.373       .  A
C159        H171   1.082       .  S
C160        H172   1.082       .  S
C161        C162   1.372       .  A
C161        H173   1.082       .  S
C162        H174   1.082       .  S
C163        C369   1.477       .  S
C164        C318   1.478       .  S
C165        C338   1.471       .  S
C166        C349   1.482       .  S
C177        C178   1.535       .  S
C177        C181   1.531       .  S
C177       C1591   1.545       .  S
C177        C629   1.538       .  S
C178        H185   1.086       .  S
C178       C1587   1.368       .  D
C179        C180   1.553       .  S
C179       C1586   1.376       .  D
C179        C289   1.503       .  S
C180        C184   1.548       .  S
C180        C182   1.555       .  S
C180        H186   1.108       .  S
C181        H187   1.086       .  S
C181       C1590   1.370       .  D
C182       C1589   1.365       .  D
C182        C278   1.501       .  S
C183       C1585   1.542       .  S
C183        H188   1.083       .  S
C183        C184   1.364       .  D
C184        C649   1.493       .  S
C189        C190   1.532       .  S
C189        C195   1.543       .  S
C189        C897   1.533       .  S
C189        C238   1.534       .  S
C190        H197   1.086       .  S
C190        C191   1.370       .  D
C191        C192   1.552       .  S
C191        C669   1.501       .  S
C192        C196   1.541       .  S
C192        C898   1.547       .  S
C192        H198   1.108       .  S
C193        C893   1.533   1_545  S
C193        H199   1.085       .  S
C193        C194   1.371       .  D
C194        C896   1.550   1_545  S
C194        C689   1.500       .  S
C195        H200   1.082       .  S
C195        C196   1.366       .  D
C196        C258   1.486       .  S
C201        C202   1.533       .  S
C201        C205   1.540       .  S
C201       C1615   1.538       .  S
C201        C498   1.543       .  S
C202        H209   1.084       .  S
C202       C1611   1.370       .  D
C203        C204   1.545       .  S
C203       C1610   1.365       .  D
C203        C458   1.487       .  S
C204        C208   1.541       .  S
C204        C206   1.543       .  S
C204        H210   1.111       .  S
C205        H211   1.079       .  S
C205       C1614   1.368       .  D
C206       C1613   1.363       .  D
C206        C429   1.485       .  S
C207       C1609   1.542       .  S
C207        H212   1.086       .  S
C207        C208   1.369       .  D
C208        C469   1.482       .  S
C213        C219   1.547       .  S
C213        C217   1.537       .  S
C213        C918   1.537       .  S
C213        C409   1.540       .  S
C214        C917   1.536       .  S
C214        H221   1.086       .  S
C214        C215   1.367       .  D
C215        C920   1.545   1_545  S
C215        C509   1.489       .  S
C216        C220   1.537       .  S
C216        C218   1.544       .  S
C216        C919   1.545       .  S
C216        H222   1.111       .  S
C217        H223   1.087       .  S
C217        C218   1.366       .  D
C218        C529   1.484       .  S
C219        H224   1.081       .  S
C219        C220   1.368       .  D
C220        C389   1.487       .  S
C225        C230   1.394       .  A
C225        C930   1.405       .  A
C225        H235   1.083       .  S
C226        C231   1.486       .  S
C226        C227   1.410       .  A
C226        C929   1.403       .  A
C227        C228   1.403       .  A
C227        F232   1.357       .  S
C228        C229   1.405       .  A
C228        H233   1.083       .  S
C229        C934   1.408       .  A
C230        C933   1.404       .  A
C230        F234   1.358       .  S
C231        C236   1.406       .  A
C231        C240   1.402       .  A
C236        C237   1.396       .  A
C236        F241   1.358       .  S
C237        C238   1.410       .  A
C237        H946   1.077       .  S
C238        C239   1.415       .  A
C239        C240   1.399       .  A
C239        F243   1.357       .  S
C240        H244   1.083       .  S
H242        C941   1.074       .  S
C245        C246   1.407       .  A
C245        C250   1.410       .  A
C245        H255   1.083       .  S
C246        C251   1.492       .  S
C246        C951   1.405       .  A
C247        C248   1.394       .  A
C247        C950   1.402   1_565  A
C247        F252   1.358       .  S
C248        C953   1.410       .  A
C248        H253   1.083       .  S
C249        C250   1.414       .  A
C249        C952   1.410       .  A
C250        F254   1.357       .  S
C251        C256   1.408       .  A
C251        C964   1.408       .  A
C256        C257   1.396       .  A
C256        F261   1.358       .  S
C257        C258   1.403       .  A
C257        H262   1.084       .  S
C258        C963   1.407       .  A
C259        C260   1.397       .  A
C259        C962   1.407       .  A
C259        F263   1.358       .  S
C260        C955   1.403       .  A
C260        H264   1.083       .  S
C265        C270   1.402       .  A
C265       C1674   1.406   1_455  A
C265        H275   1.083       .  S
C266        C271   1.487       .  S
C266        C267   1.403       .  A
C266       C1673   1.408       .  A
C267        C268   1.397       .  A
C267        F272   1.357       .  S
C268        C269   1.408       .  A
C268        H273   1.084       .  S
C269       C1678   1.408       .  A
C270       C1677   1.407   1_455  A
C270        F274   1.358       .  S
C271        C280   1.406       .  A
C271       C1684   1.403       .  A
C276        C277   1.398       .  A
C276       C1679   1.402   1_455  A
C276        F281   1.358       .  S
C277       C1686   1.409       .  A
C277        H282   1.083       .  S
C278        C279   1.408       .  A
C278       C1685   1.412       .  A
C279        C280   1.403       .  A
C279        F283   1.352       .  S
C280        H284   1.083       .  S
C285        C286   1.403       .  A
C285        C290   1.401       .  A
C285        H295   1.084       .  S
C286        C291   1.489       .  S
C286       C1695   1.407       .  A
C287        C288   1.405       .  A
C287       C1694   1.407       .  A
C287        F292   1.357       .  S
C288       C1697   1.407   1_655  A
C288        H293   1.083       .  S
C289        C290   1.412       .  A
C289       C1696   1.410       .  A
C290        F294   1.357       .  S
C291        C296   1.403       .  A
C291       C1708   1.409       .  A
C296        C297   1.399       .  A
C296        F301   1.357       .  S
C297        C298   1.409       .  A
C297        H302   1.084       .  S
C298       C1707   1.407       .  A
C299        C300   1.405       .  A
C299       C1706   1.410       .  A
C299        F303   1.357   1_655  S
C300       C1699   1.405       .  A
C300        H304   1.083   1_655  S
C305        C306   1.400       .  A
C305        C310   1.394       .  A
C305        H315   1.083       .  S
C306        C311   1.469   1_556  S
C306        C307   1.402   1_556  A
C307        C308   1.393   1_554  A
C307        F312   1.358       .  S
C308        C309   1.408       .  A
C308        H313   1.083       .  S
C309        C310   1.411       .  A
C310        F314   1.358       .  S
C311        C316   1.404       .  A
C311        C320   1.402   1_554  A
C316        C317   1.394       .  A
C316        F321   1.358       .  S
C317        C318   1.402       .  A
C317        H322   1.083       .  S
C318        C319   1.404   1_554  A
C319        C320   1.395       .  A
C319        F323   1.357       .  S
C320        H324   1.083       .  S
C325        C326   1.395       .  A
C325        C330   1.390       .  A
C325        H335   1.084       .  S
C326        C331   1.460       .  S
C326        C327   1.401       .  A
C327        C328   1.395   1_554  A
C327        F332   1.358   1_554  S
C328        C329   1.407   1_556  A
C328        H333   1.083       .  S
C329        C330   1.414       .  A
C330        F334   1.358       .  S
C331        C336   1.401       .  A
C331        C340   1.401   1_554  A
C336        C337   1.392       .  A
C336        F341   1.357       .  S
C337        C338   1.401       .  A
C337        H342   1.083       .  S
C338        C339   1.403   1_554  A
C339        C340   1.394       .  A
C339        F343   1.358       .  S
C340        H344   1.084       .  S
C345        C346   1.405       .  A
C345        C350   1.399       .  A
C345        H355   1.083       .  S
C346        C351   1.481       .  S
C346        C347   1.407   1_554  A
C347        C348   1.397       .  A
C347        F352   1.357       .  S
C348        C349   1.402   1_556  A
C348        H353   1.083       .  S
C349        C350   1.404       .  A
C350        F354   1.357       .  S
C351        C356   1.404       .  A
C351        C360   1.402       .  A
C356        C357   1.399       .  A
C356        F361   1.358       .  S
C357        C358   1.410       .  A
C357        H362   1.083       .  S
C358        C359   1.413       .  A
C359        C360   1.399       .  A
C359        F363   1.357   1_554  S
C360        H364   1.083       .  S
C365        C366   1.404   1_556  A
C365        C370   1.396       .  A
C365        H375   1.083       .  S
C366        C371   1.476       .  S
C366        C367   1.407       .  A
C367        C368   1.396       .  A
C367        F372   1.357       .  S
C368        C369   1.401       .  A
C368        H373   1.083       .  S
C369        C370   1.403   1_554  A
C370        F374   1.357       .  S
C371        C376   1.404       .  A
C371        C380   1.401       .  A
C376        C377   1.396       .  A
C376        F381   1.357       .  S
C377        C378   1.406       .  A
C377        H382   1.083       .  S
C378        C379   1.415       .  A
C379        C380   1.397       .  A
C379        F383   1.358   1_554  S
C380        H384   1.084       .  S
C385        C390   1.401       .  A
C385       C1090   1.403   1_545  A
C385        H395   1.083       .  S
C386        C391   1.486       .  S
C386        C387   1.405       .  A
C386       C1089   1.407       .  A
C387        C388   1.395       .  A
C387        F392   1.357       .  S
C388        C389   1.404       .  A
C388        H393   1.083       .  S
C389       C1094   1.407       .  A
C390       C1093   1.405   1_545  A
C390        F394   1.357       .  S
C391        C400   1.401       .  A
C391       C1100   1.405       .  A
C396        C397   1.402       .  A
C396       C1095   1.403       .  A
C396        F401   1.357       .  S
C397        C398   1.409   1_565  A
C397        H402   1.083       .  S
C398       C1103   1.412       .  A
C399        C400   1.396       .  A
C399       C1102   1.415       .  A
C399        F403   1.358       .  S
C400        H404   1.084       .  S
C405        C410   1.401       .  A
C405       C1110   1.403       .  A
C405        H415   1.083       .  S
C406        C411   1.493       .  S
C406        C407   1.406       .  A
C406       C1109   1.404   1_565  A
C407        C408   1.399       .  A
C407        F412   1.358       .  S
C408       C1113   1.414   1_565  A
C408        H413   1.075       .  S
C409        C410   1.413       .  A
C409       C1112   1.414       .  A
C410        F414   1.357       .  S
C411        C420   1.406       .  A
C411       C1120   1.411   1_565  A
C416        C417   1.405       .  A
C416       C1115   1.412       .  A
C416        F421   1.356       .  S
C417       C1122   1.402       .  A
C417        H422   1.083       .  S
C418        C419   1.407       .  A
C418       C1121   1.403   1_565  A
C419        C420   1.399       .  A
C419        F423   1.358       .  S
C420        H424   1.083       .  S
C425        C426   1.405       .  A
C425        C430   1.404       .  A
C425        H435   1.083       .  S
C426        C431   1.484       .  S
C426       C1835   1.406       .  A
C427        C428   1.396       .  A
C427       C1834   1.403   1_455  A
C427        F432   1.358       .  S
C428       C1837   1.410       .  A
C428        H433   1.083       .  S
C429        C430   1.406       .  A
C429       C1836   1.405       .  A
C430        F434   1.356       .  S
C431        C436   1.401       .  A
C431       C1848   1.406       .  A
C436        C437   1.394       .  A
C436        F441   1.358       .  S
C437        C438   1.412       .  A
C437        H442   1.083       .  S
C438       C1847   1.411       .  A
C439        C440   1.404       .  A
C439       C1846   1.406       .  A
C439        F443   1.357   1_655  S
C440       C1839   1.408       .  A
C440        H444   1.083   1_655  S
C445        C446   1.404       .  A
C445        C450   1.405       .  A
C445        H455   1.083       .  S
C446        C451   1.477       .  S
C446       C1855   1.399       .  A
C447        C448   1.400       .  A
C447       C1854   1.408       .  A
C447        F452   1.357       .  S
C448       C1857   1.407       .  A
C448        H453   1.084       .  S
C449        C450   1.412       .  A
C449       C1856   1.412       .  A
C450        F454   1.357       .  S
C451        C456   1.406       .  A
C451       C1868   1.399       .  A
C456        C457   1.405       .  A
C456        F461   1.357       .  S
C457        C458   1.406       .  A
C457        H462   1.082       .  S
C458       C1867   1.409       .  A
C459        C460   1.398       .  A
C459       C1866   1.415       .  A
C459        F463   1.356       .  S
C460       C1859   1.403   1_455  A
C460        H464   1.083       .  S
C465        C466   1.404       .  A
C465        C470   1.402       .  A
C465        H475   1.083       .  S
C466        C471   1.485       .  S
C466        C467   1.408       .  A
C467        C468   1.403       .  A
C467        F472   1.358       .  S
C468        C469   1.403       .  A
C468        H473   1.083       .  S
C469        C470   1.404       .  A
C470        F474   1.356       .  S
C471        C476   1.408       .  A
C471        C480   1.398       .  A
C476        C477   1.408       .  A
C476        F481   1.357       .  S
C477        C478   1.409       .  A
C477        H482   1.083       .  S
C478        C479   1.416       .  A
C479        C480   1.395       .  A
C479        F483   1.358       .  S
C480        H484   1.084       .  S
C485        C486   1.409       .  A
C485        C490   1.408       .  A
C485        H495   1.083       .  S
C486        C491   1.492       .  S
C486        C487   1.403       .  A
C487        C488   1.394       .  A
C487        F492   1.358       .  S
C488        C489   1.411       .  A
C488        H493   1.083       .  S
C489        C490   1.411       .  A
C490        F494   1.357       .  S
C491        C496   1.403       .  A
C491        C500   1.405       .  A
C496        C497   1.401       .  A
C496        F501   1.358       .  S
C497        C498   1.416       .  A
C497        H502   1.075       .  S
C498        C499   1.413       .  A
C499        C500   1.401       .  A
C499        F503   1.357       .  S
C500        H504   1.083       .  S
C505        C506   1.411       .  A
C505        C510   1.404       .  A
C505        H515   1.082       .  S
C506        C511   1.499       .  S
C506        C507   1.410       .  A
C507        C508   1.401       .  A
C507        F512   1.357       .  S
C508        C509   1.405       .  A
C508        H513   1.083       .  S
C509        C510   1.404       .  A
C510        F514   1.357       .  S
C511        C516   1.410       .  A
C511        C520   1.411       .  A
C516        C517   1.401       .  A
C516        F521   1.357       .  S
C517        C518   1.406       .  A
C517        H522   1.084       .  S
C518        C519   1.404       .  A
C519        C520   1.402       .  A
C519        F523   1.357       .  S
C520        H524   1.082       .  S
C525        C526   1.404       .  A
C525        C530   1.404       .  A
C525        H535   1.083       .  S
C526        C531   1.481       .  S
C526        C527   1.405       .  A
C527        C528   1.399       .  A
C527        F532   1.357       .  S
C528        C529   1.404       .  A
C528        H533   1.083       .  S
C529        C530   1.408       .  A
C530        F534   1.357       .  S
C531        C536   1.401       .  A
C531        C540   1.404       .  A
C536        C537   1.398       .  A
C536        F541   1.358       .  S
C537        C538   1.411       .  A
C537        H542   1.083       .  S
C538        C539   1.412       .  A
C539        C540   1.405       .  A
C539        F543   1.357       .  S
C540        H544   1.083       .  S
C545        C546   1.401       .  A
C545        C550   1.392       .  A
C545        H555   1.083       .  S
C546        C551   1.475       .  S
C546        C547   1.406       .  A
C547        C548   1.395       .  A
C547        F552   1.358       .  S
C548        C549   1.406       .  A
C548        H553   1.083       .  S
C549        C550   1.412       .  A
C550        F554   1.358       .  S
C551        C556   1.407       .  A
C551        C560   1.404       .  A
C556        C557   1.394       .  A
C556        F561   1.358       .  S
C557        C558   1.403       .  A
C557        H562   1.083       .  S
C558        C559   1.403       .  A
C559        C560   1.393       .  A
C559        F563   1.357       .  S
C560        H564   1.083       .  S
C565        C566   1.400       .  A
C565        C570   1.394       .  A
C565        H575   1.084       .  S
C566        C571   1.472       .  S
C566        C567   1.404       .  A
C567        C568   1.395       .  A
C567        F572   1.358       .  S
C568        C569   1.406       .  A
C568        H573   1.083       .  S
C569        C570   1.413       .  A
C570        F574   1.358       .  S
C571        C576   1.405       .  A
C571        C580   1.405       .  A
C576        C577   1.392       .  A
C576        F581   1.357       .  S
C577        C578   1.398       .  A
C577        H582   1.083       .  S
C578        C579   1.403       .  A
C579        C580   1.395       .  A
C579        F583   1.358       .  S
C580        H584   1.083       .  S
C585        C586   1.404       .  A
C585        C590   1.392       .  A
C585        H595   1.083       .  S
C586        C591   1.475       .  S
C586        C587   1.408       .  A
C587        C588   1.396       .  A
C587        F592   1.358       .  S
C588        C589   1.403       .  A
C588        H593   1.083       .  S
C589        C590   1.402       .  A
C590        F594   1.357       .  S
C591        C596   1.405       .  A
C591        C600   1.402       .  A
C596        C597   1.393       .  A
C596        F601   1.358       .  S
C597        C598   1.406       .  A
C597        H602   1.083       .  S
C598        C599   1.412       .  A
C599        C600   1.394       .  A
C599        F603   1.358       .  S
C600        H604   1.083       .  S
C605        C606   1.398       .  A
C605        C610   1.394       .  A
C605        H615   1.084       .  S
C606        C611   1.464       .  S
C606        C607   1.401       .  A
C607        C608   1.393       .  A
C607        F612   1.358       .  S
C608        C609   1.407       .  A
C608        H613   1.083       .  S
C609        C610   1.412       .  A
C610        F614   1.357       .  S
C611        C616   1.403       .  A
C611        C620   1.401       .  A
C616        C617   1.394       .  A
C616        F621   1.357       .  S
C617        C618   1.400       .  A
C617        H622   1.083       .  S
C618        C619   1.404       .  A
C619        C620   1.394       .  A
C619        F623   1.358       .  S
C620        H624   1.083       .  S
C625        C626   1.403       .  A
C625        C630   1.403       .  A
C625        H635   1.083       .  S
C626        C631   1.492       .  S
C626        C627   1.406       .  A
C627        C628   1.398       .  A
C627        F632   1.358       .  S
C628        C629   1.410       .  A
C628        H633   1.077       .  S
C629        C630   1.416       .  A
C630        F634   1.358       .  S
C631        C636   1.407       .  A
C631        C640   1.408       .  A
C636        C637   1.396       .  A
C636        F641   1.358       .  S
C637        C638   1.406       .  A
C637        H642   1.084       .  S
C638        C639   1.407       .  A
C639        C640   1.406       .  A
C639        F643   1.357       .  S
C640        H644   1.083       .  S
C645        C646   1.406       .  A
C645        C650   1.401       .  A
C645        H655   1.083       .  S
C646        C651   1.492       .  S
C646        C647   1.407       .  A
C647        C648   1.404       .  A
C647        F652   1.357       .  S
C648        C649   1.403       .  A
C648        H653   1.078       .  S
C649        C650   1.410       .  A
C650        F654   1.358       .  S
C651        C656   1.409       .  A
C651        C660   1.400       .  A
C656        C657   1.409       .  A
C656        F661   1.357       .  S
C657        C658   1.409       .  A
C657        H662   1.083       .  S
C658        C659   1.418       .  A
C659        C660   1.396       .  A
C659        F663   1.358       .  S
C660        H664   1.084       .  S
C665        C666   1.406       .  A
C665        C670   1.406       .  A
C665        H675   1.083       .  S
C666        C671   1.492       .  S
C666        C667   1.405       .  A
C667        C668   1.399       .  A
C667        F672   1.357       .  S
C668        C669   1.409       .  A
C668        H673   1.082       .  S
C669        C670   1.411       .  A
C670        F674   1.356       .  S
C671        C676   1.411       .  A
C671        C680   1.402       .  A
C676        C677   1.406       .  A
C676        F681   1.357       .  S
C677        C678   1.404       .  A
C677        H682   1.083       .  S
C678        C679   1.412       .  A
C679        C680   1.400       .  A
C679        F683   1.358       .  S
C680        H684   1.083       .  S
C685        C686   1.407       .  A
C685        C690   1.401       .  A
C685        H695   1.083       .  S
C686        C691   1.491       .  S
C686        C687   1.404       .  A
C687        C688   1.398       .  A
C687        F692   1.358       .  S
C688        C689   1.412       .  A
C688        H693   1.081       .  S
C689        C690   1.410       .  A
C690        F694   1.356       .  S
C691        C696   1.405       .  A
C691        C700   1.409       .  A
C696        C697   1.394       .  A
C696        F701   1.358       .  S
C697        C698   1.409       .  A
C697        H702   1.083       .  S
C698        C699   1.411       .  A
C699        C700   1.405       .  A
C699        F703   1.357       .  S
C700        H704   1.083       .  S
O705       Zr741   2.483       .  S
O705        C716   1.301       .  A
O706       Zr740   2.478       .  S
O706        C717   1.300       .  A
O707       Zr713   2.436       .  S
O707        C718   1.292       .  A
O708       Zr713   2.426       .  S
O708        C719   1.290       .  A
O709       Zr743   2.430       .  S
O709        C719   1.290       .  A
O710       Zr742   2.420       .  S
O710        C718   1.288       .  A
O711       Zr713   2.425       .  S
O711        C717   1.291       .  A
O712       Zr713   2.419       .  S
O712        C716   1.290       .  A
Zr713       O714   2.335       .  S
Zr713       O715   2.336       .  S
Zr713       O723   2.338       .  S
Zr713       O721   2.335       .  S
O714       Zr740   2.347       .  S
O714       Zr743   2.335       .  S
O715       Zr741   2.356       .  S
O715       Zr742   2.340       .  S
C716       C1402   1.489       .  S
C717       C1222   1.497       .  S
C718       C1253   1.482       .  S
C719       C1273   1.477       .  S
H720        O721   0.967       .  S
O721       Zr740   2.358       .  S
O721       Zr742   2.340       .  S
H722        O723   0.966       .  S
O723       Zr741   2.348       .  S
O723       Zr743   2.330       .  S
O724       Zr740   2.485       .  S
O724        C747   1.301       .  A
O725       Zr741   2.467       .  S
O725        C748   1.298       .  A
O726       Zr742   2.434       .  S
O726        C749   1.292       .  A
O727       Zr743   2.409       .  S
O727        C750   1.288       .  A
O728       Zr743   2.417       .  S
O728        C751   1.289       .  A
O729       Zr742   2.436       .  S
O729        C752   1.292       .  A
O730       Zr744   2.430       .  S
O730        C753   1.290       .  A
O731       Zr744   2.425       .  S
O731        C754   1.289       .  A
O732       Zr742   2.430       .  S
O732        C753   1.291       .  A
O733       Zr743   2.433       .  S
O733        C754   1.292       .  A
O734       Zr740   2.459       .  S
O734        C749   1.297       .  A
O735       Zr741   2.469       .  S
O735        C752   1.299       .  A
O736       Zr741   2.479       .  S
O736        C751   1.299       .  A
O737       Zr740   2.469       .  S
O737        C750   1.298       .  A
O738       Zr744   2.425       .  S
O738        C747   1.291       .  A
O739       Zr744   2.427       .  S
O739        C748   1.291       .  A
Zr740       O746   2.351       .  S
Zr740       O758   2.349       .  S
Zr741       O745   2.354       .  S
Zr741       O756   2.362       .  S
Zr742       O746   2.330       .  S
Zr742       O756   2.336       .  S
Zr743       O745   2.332       .  S
Zr743       O758   2.333       .  S
Zr744       O745   2.339       .  S
Zr744       O746   2.329       .  S
Zr744       O758   2.339       .  S
Zr744       O756   2.337       .  S
C747       C1242   1.496       .  S
C748       C1382   1.491       .  S
C749       C1182   1.495       .  S
C750       C1193   1.489       .  S
C751       C1342   1.487       .  S
C752       C1362   1.496       .  S
C753       C1313   1.485       .  S
C754       C1302   1.483       .  S
H755        O756   0.967       .  S
H757        O758   0.966       .  S
N759        H791   1.037   1_565  S
N759        C763   1.354       .  A
N760       C2175   1.352   1_455  A
N760        C768   1.352       .  A
N761        H792   1.037       .  S
N761        C765   1.350       .  A
N762       C2177   1.349   1_455  A
N762        C770   1.349       .  A
C763        C771   1.387       .  A
C763        C779   1.415       .  A
C764        C780   1.408       .  A
C764        C772   1.387       .  A
C765        C773   1.388       .  A
C765        C782   1.413       .  A
C766        C781   1.407       .  A
C766        C774   1.387       .  A
C767       N2168   1.351       .  A
C767        C779   1.414       .  A
C767        C775   1.386       .  A
C768        C782   1.414       .  A
C768        C776   1.386       .  A
C769       N2170   1.348       .  A
C769        C777   1.386       .  A
C769        C780   1.408       .  A
C770        C778   1.385       .  A
C770        C781   1.407       .  A
C771        H783   1.082       .  S
C772        H784   1.082       .  S
C773        H785   1.082       .  S
C774        H786   1.082       .  S
C775       C2184   1.371       .  A
C775        H787   1.082       .  S
C776       C2183   1.374   1_455  A
C776        H788   1.082       .  S
C777       C2186   1.372       .  A
C777        H789   1.082       .  S
C778       C2185   1.373   1_455  A
C778        H790   1.082       .  S
C779       C1322   1.484       .  S
C780       C1262   1.477       .  S
C781       C1282   1.471       .  S
C782       C1293   1.482       .  S
O793       Zr829   2.482   1_565  S
O793        C804   1.300       .  A
O794       Zr828   2.469       .  S
O794        C805   1.298       .  A
O795      Zr2209   2.440   1_455  S
O795        C806   1.292       .  A
O796       Zr801   2.422       .  S
O796        C807   1.289       .  A
O797       Zr831   2.433       .  S
O797        C807   1.291       .  A
O798       Zr830   2.432   1_554  S
O798        C806   1.291       .  A
O799       Zr801   2.419   1_554  S
O799        C805   1.289       .  A
O800       Zr801   2.419       .  S
O800        C804   1.289       .  A
Zr801      O2203   2.438       .  S
Zr801       O802   2.338   1_556  S
Zr801      O2211   2.330       .  S
Zr801       O811   2.337       .  S
Zr801      O2217   2.335   1_556  S
O802       Zr828   2.351       .  S
O802       Zr831   2.342   1_554  S
O803      Zr2209   2.333   1_456  S
O803      Zr2237   2.352   1_455  S
O803       Zr830   2.332       .  S
C804       C1153   1.486       .  S
C805        C973   1.481       .  S
C806       C1013   1.488       .  S
C807       C1033   1.480       .  S
H808        O809   0.965       .  S
O809      Zr2209   2.335   1_455  S
O809      Zr2236   2.356   1_455  S
O809       Zr830   2.334   1_554  S
H810        O811   0.965       .  S
O811       Zr829   2.350   1_565  S
O811       Zr831   2.335       .  S
O812        C835   1.297       .  A
O813        C836   1.298       .  A
O814       Zr830   2.425   1_544  S
O814        C837   1.290       .  A
O815       Zr831   2.423   1_554  S
O815        C838   1.291       .  A
O816       Zr831   2.430   1_545  S
O817       Zr830   2.424       .  S
O818      Zr2240   2.425   1_455  S
O818        C841   1.290       .  A
O819       Zr832   2.433       .  S
O819        C842   1.291       .  A
O820        C841   1.288       .  A
O821        C842   1.287       .  A
O822      Zr2236   2.449   1_455  S
O822        C837   1.294   1_565  A
O823      Zr1533   2.485   1_455  S
O823        C840   1.301       .  A
O824        C839   1.298       .  A
O825       Zr828   2.465       .  S
O825        C838   1.298       .  A
O826       Zr832   2.424   1_554  S
O826        C835   1.291       .  A
O827       Zr832   2.427       .  S
O827        C836   1.291       .  A
Zr828      O2230   2.465       .  S
Zr828      O2217   2.349       .  S
Zr828      O1538   2.352   1_565  S
Zr829      O1527   2.463   1_545  S
Zr829      O2211   2.345   1_545  S
Zr829      O1548   2.355       .  S
Zr832      O2226   2.437       .  S
Zr832       O833   2.336       .  S
Zr832      O2242   2.337   1_556  S
Zr832       O846   2.338   1_556  S
Zr832      O2252   2.340       .  S
O834      Zr1532   2.339   1_455  S
O834      Zr2240   2.333   1_454  S
C835       C1002   1.492       .  S
C836       C1142   1.492       .  S
C837        C933   1.470       .  S
C838        C953   1.492       .  S
C839       C1102   1.498       .  S
C840       C1122   1.482       .  S
C841       C1082   1.474       .  S
C842       C1062   1.478   1_556  S
H843        O844   0.966       .  S
O844      Zr1533   2.346   1_455  S
O844      Zr2240   2.345   1_455  S
H845        O846   0.965       .  S
N847        H879   1.037       .  S
N847        C852   1.350   1_554  A
N847        C851   1.351   1_554  A
N848        C855   1.349       .  A
N848        C856   1.347       .  A
N849        H880   1.039       .  S
N849        C854   1.351       .  A
N849        C853   1.351       .  A
N850        C857   1.350       .  A
N850        C858   1.350       .  A
C851        C859   1.387       .  A
C851        C867   1.411   1_556  A
C852        C868   1.411       .  A
C852        C860   1.387       .  A
C853        C861   1.388   1_554  A
C853        C870   1.411       .  A
C854        C869   1.410       .  A
C854        C862   1.387   1_554  A
C855        C867   1.407       .  A
C855        C863   1.386       .  A
C856        C870   1.407       .  A
C856        C864   1.387       .  A
C857        C865   1.387       .  A
C857        C868   1.412   1_554  A
C858        C866   1.385       .  A
C858        C869   1.410       .  A
C859        C860   1.374       .  A
C859        H871   1.083       .  S
C860        H872   1.082       .  S
C861        C862   1.371       .  A
C861        H873   1.082       .  S
C862        H874   1.082       .  S
C863        C864   1.371       .  A
C863        H875   1.082       .  S
C864        H876   1.083       .  S
C865        C866   1.372       .  A
C865        H877   1.082       .  S
C866        H878   1.082       .  S
C867       C1073   1.474       .  S
C868       C1022   1.478       .  S
C869       C1042   1.478       .  S
C870       C1053   1.473       .  S
C881        C882   1.531       .  S
C881       C2295   1.543       .  S
C881        C885   1.527       .  S
C881       C1333   1.537       .  S
C882        H889   1.086       .  S
C882       C2291   1.364       .  D
C883        C884   1.549       .  S
C883       C2290   1.368       .  D
C883        C993   1.489       .  S
C884        C888   1.541       .  S
C884        C886   1.551       .  S
C884        H890   1.110       .  S
C885        H891   1.084       .  S
C885       C2294   1.372       .  D
C886       C2293   1.368       .  D
C886        C982   1.495       .  S
C887       C2289   1.545       .  S
C887        H892   1.082       .  S
C887        C888   1.364       .  D
C888       C1353   1.483       .  S
C893        C894   1.532       .  S
C893        C899   1.542       .  S
C893        C942   1.536       .  S
C894        H901   1.086       .  S
C894        C895   1.371       .  D
C895        C896   1.555       .  S
C895       C1373   1.503       .  S
C896        C900   1.536       .  S
C896        H902   1.104       .  S
C897        H903   1.086       .  S
C897        C898   1.365       .  D
C898       C1393   1.489       .  S
C899        H904   1.080       .  S
C899        C900   1.361       .  D
C900        C962   1.481   1_565  S
C905        C906   1.538       .  S
C905       C2319   1.540       .  S
C905        C909   1.536       .  S
C905       C1202   1.539       .  S
C906        H913   1.084       .  S
C906       C2315   1.372       .  D
C907        C908   1.548       .  S
C907       C2314   1.370       .  D
C907       C1162   1.498       .  S
C908        C912   1.538       .  S
C908        C910   1.542       .  S
C908        H914   1.110       .  S
C909        H915   1.079       .  S
C909       C2318   1.360       .  D
C910       C2317   1.362       .  D
C910       C1133   1.486       .  S
C911       C2313   1.542       .  S
C911        H916   1.086       .  S
C911        C912   1.369       .  D
C912       C1173   1.477       .  S
C917        C923   1.542   1_545  S
C917        C921   1.538   1_545  S
C917       C1113   1.540       .  S
C918        H925   1.086       .  S
C918        C919   1.365       .  D
C919       C1213   1.483       .  S
C920        C924   1.537       .  S
C920        C922   1.550       .  S
C920        H926   1.109   1_565  S
C921        H927   1.086       .  S
C921        C922   1.372       .  D
C922       C1233   1.503       .  S
C923        H928   1.080       .  S
C923        C924   1.364       .  D
C924       C1093   1.479       .  S
C929        C934   1.392       .  A
C929        H939   1.083       .  S
C930        C935   1.485   1_545  S
C930        C931   1.409   1_545  A
C931        C932   1.401       .  A
C931        F936   1.357       .  S
C932        C933   1.403   1_565  A
C932        H937   1.083       .  S
C934        F938   1.358       .  S
C935        C940   1.404       .  A
C935        C944   1.403       .  A
C940        C941   1.394       .  A
C940        F945   1.358       .  S
C941        C942   1.412       .  A
C942        C943   1.414       .  A
C943        C944   1.401       .  A
C943        F947   1.357       .  S
C944        H948   1.083       .  S
C949        C950   1.404       .  A
C949        C954   1.404       .  A
C949        H959   1.083       .  S
C950        C955   1.479       .  S
C951        C952   1.396       .  A
C951        F956   1.358       .  S
C952        H957   1.083       .  S
C953        C954   1.412   1_565  A
C954        F958   1.357       .  S
C955        C960   1.405   1_545  A
C960        C961   1.400       .  A
C960        F965   1.357       .  S
C961        C962   1.401   1_565  A
C961        H966   1.078       .  S
C963        C964   1.408       .  A
C963        F967   1.357       .  S
C964        H968   1.083       .  S
C969       C2378   1.408       .  A
C969        C974   1.406       .  A
C969        H979   1.083   1_655  S
C970        C975   1.483       .  S
C970       C2377   1.406       .  A
C970        C971   1.404       .  A
C971        C972   1.399       .  A
C971        F976   1.358       .  S
C972        C973   1.408       .  A
C972        H977   1.084       .  S
C973       C2382   1.406       .  A
C974       C2381   1.408       .  A
C974        F978   1.357   1_655  S
C975       C2388   1.403       .  A
C975        C984   1.405       .  A
C980       C2383   1.401   1_455  A
C980        C981   1.397       .  A
C980        F985   1.358       .  S
C981       C2390   1.414       .  A
C981        H986   1.081       .  S
C982       C2389   1.409       .  A
C982        C983   1.409       .  A
C983        C984   1.404       .  A
C983        F987   1.354       .  S
C984        H988   1.083       .  S
C989        C990   1.403       .  A
C989        C994   1.397       .  A
C989        H999   1.084       .  S
C990        C995   1.485       .  S
C990       C2399   1.407       .  A
C991       C2398   1.406   1_655  A
C991        C992   1.403       .  A
C991        F996   1.358       .  S
C992       C2401   1.405   1_655  A
C992        H997   1.083       .  S
C993       C2400   1.406       .  A
C993        C994   1.408       .  A
C994        F998   1.358       .  S
C995       C1000   1.401       .  A
C995       C2412   1.407       .  A
C1000      C1001   1.392       .  A
C1000      F1005   1.357       .  S
C1001      C1002   1.409       .  A
C1001      H1006   1.083       .  S
C1002      C2411   1.412       .  A
C1003      C2410   1.409       .  A
C1003      C1004   1.404       .  A
C1003      F1007   1.357       .  S
C1004      C2403   1.405       .  A
C1004      H1008   1.083       .  S
C1009      C1010   1.399   1_556  A
C1009      C1014   1.396       .  A
C1009      H1019   1.084       .  S
C1010      C1015   1.471   1_554  S
C1010      C1011   1.402       .  A
C1011      C1012   1.398       .  A
C1011      F1016   1.358       .  S
C1012      C1013   1.410       .  A
C1012      H1017   1.083       .  S
C1013      C1014   1.412   1_554  A
C1014      F1018   1.357       .  S
C1015      C1020   1.403   1_556  A
C1015      C1024   1.404       .  A
C1020      C1021   1.395       .  A
C1020      F1025   1.357       .  S
C1021      C1022   1.401   1_554  A
C1021      H1026   1.083       .  S
C1022      C1023   1.404       .  A
C1023      C1024   1.398       .  A
C1023      F1027   1.357       .  S
C1024      H1028   1.083       .  S
C1029      C1030   1.401       .  A
C1029      C1034   1.394       .  A
C1029      H1039   1.084       .  S
C1030      C1035   1.471       .  S
C1030      C1031   1.403   1_556  A
C1031      C1032   1.395       .  A
C1031      F1036   1.358       .  S
C1032      C1033   1.409   1_554  A
C1032      H1037   1.083       .  S
C1033      C1034   1.410       .  A
C1034      F1038   1.357       .  S
C1035      C1040   1.406   1_556  A
C1035      C1044   1.402       .  A
C1040      C1041   1.397       .  A
C1040      F1045   1.358       .  S
C1041      C1042   1.402       .  A
C1041      H1046   1.083       .  S
C1042      C1043   1.402   1_554  A
C1043      C1044   1.394       .  A
C1043      F1047   1.357       .  S
C1044      H1048   1.083       .  S
C1049      C1050   1.402       .  A
C1049      C1054   1.394       .  A
C1049      H1059   1.083       .  S
C1050      C1055   1.462       .  S
C1050      C1051   1.402   1_554  A
C1051      C1052   1.390       .  A
C1051      F1056   1.358       .  S
C1052      C1053   1.401   1_556  A
C1052      H1057   1.084       .  S
C1053      C1054   1.403       .  A
C1054      F1058   1.358       .  S
C1055      C1060   1.401       .  A
C1055      C1064   1.397       .  A
C1060      C1061   1.395   1_554  A
C1060      F1065   1.358       .  S
C1061      C1062   1.408   1_556  A
C1061      H1066   1.083       .  S
C1062      C1063   1.413       .  A
C1063      C1064   1.390       .  A
C1063      F1067   1.358       .  S
C1064      H1068   1.084       .  S
C1069      C1070   1.406       .  A
C1069      C1074   1.393       .  A
C1069      H1079   1.083       .  S
C1070      C1075   1.474       .  S
C1070      C1071   1.407   1_556  A
C1071      C1072   1.393       .  A
C1071      F1076   1.357       .  S
C1072      C1073   1.400       .  A
C1072      H1077   1.083       .  S
C1073      C1074   1.402   1_554  A
C1074      F1078   1.357       .  S
C1075      C1080   1.406   1_556  A
C1075      C1084   1.401       .  A
C1080      C1081   1.394       .  A
C1080      F1085   1.357       .  S
C1081      C1082   1.406   1_554  A
C1081      H1086   1.083       .  S
C1082      C1083   1.410       .  A
C1083      C1084   1.390       .  A
C1083      F1087   1.358       .  S
C1084      H1088   1.083       .  S
C1089      C1094   1.406       .  A
C1089      H1099   1.083       .  S
C1090      C1095   1.473       .  S
C1090      C1091   1.403       .  A
C1091      C1092   1.394       .  A
C1091      F1096   1.358       .  S
C1092      C1093   1.405       .  A
C1092      H1097   1.084       .  S
C1094      F1098   1.357       .  S
C1095      C1104   1.399   1_565  A
C1100      C1101   1.407       .  A
C1100      F1105   1.357       .  S
C1101      C1102   1.412       .  A
C1101      H1106   1.083       .  S
C1103      C1104   1.394       .  A
C1103      F1107   1.358       .  S
C1104      H1108   1.084       .  S
C1109      C1114   1.402       .  A
C1109      H1119   1.083       .  S
C1110      C1115   1.494       .  S
C1110      C1111   1.408       .  A
C1111      C1112   1.402       .  A
C1111      F1116   1.358       .  S
C1112      H1117   1.076       .  S
C1113      C1114   1.413       .  A
C1114      F1118   1.357       .  S
C1115      C1124   1.405       .  A
C1120      C1121   1.404       .  A
C1120      F1125   1.357       .  S
C1121      H1126   1.083       .  S
C1122      C1123   1.411       .  A
C1123      C1124   1.399       .  A
C1123      F1127   1.359       .  S
C1124      H1128   1.083       .  S
C1129      C1130   1.404       .  A
C1129      C1134   1.405       .  A
C1129      H1139   1.083       .  S
C1130      C1135   1.478       .  S
C1130      C2539   1.402       .  A
C1131      C2538   1.401   1_455  A
C1131      C1132   1.393       .  A
C1131      F1136   1.358       .  S
C1132      C2541   1.406   1_455  A
C1132      H1137   1.084       .  S
C1133      C2540   1.405       .  A
C1133      C1134   1.408       .  A
C1134      F1138   1.356       .  S
C1135      C1140   1.398       .  A
C1135      C2552   1.405       .  A
C1140      C1141   1.395       .  A
C1140      F1145   1.358       .  S
C1141      C1142   1.411       .  A
C1141      H1146   1.083       .  S
C1142      C2551   1.411       .  A
C1143      C2550   1.409       .  A
C1143      C1144   1.401       .  A
C1143      F1147   1.357       .  S
C1144      C2543   1.403       .  A
C1144      H1148   1.083       .  S
C1149      C1150   1.409       .  A
C1149      C1154   1.404       .  A
C1149      H1159   1.083       .  S
C1150      C1155   1.488       .  S
C1150      C2559   1.404       .  A
C1151      C2558   1.402       .  A
C1151      C1152   1.401       .  A
C1151      F1156   1.358       .  S
C1152      C2561   1.412       .  A
C1152      H1157   1.083       .  S
C1153      C2560   1.410       .  A
C1153      C1154   1.405       .  A
C1154      F1158   1.357       .  S
C1155      C1160   1.408       .  A
C1155      C2572   1.401       .  A
C1160      C1161   1.405       .  A
C1160      F1165   1.357       .  S
C1161      C1162   1.408       .  A
C1161      H1166   1.081       .  S
C1162      C2571   1.411       .  A
C1163      C2570   1.414       .  A
C1163      C1164   1.398       .  A
C1163      F1167   1.356       .  S
C1164      C2563   1.399   1_455  A
C1164      H1168   1.084       .  S
C1169      C1170   1.404       .  A
C1169      C1174   1.403       .  A
C1169      H1179   1.083       .  S
C1170      C1175   1.479       .  S
C1170      C1171   1.405       .  A
C1171      C1172   1.398       .  A
C1171      F1176   1.357       .  S
C1172      C1173   1.401       .  A
C1172      H1177   1.083       .  S
C1173      C1174   1.405       .  A
C1174      F1178   1.357       .  S
C1175      C1180   1.405       .  A
C1175      C1184   1.397       .  A
C1180      C1181   1.407       .  A
C1180      F1185   1.357       .  S
C1181      C1182   1.412       .  A
C1181      H1186   1.083       .  S
C1182      C1183   1.415       .  A
C1183      C1184   1.393       .  A
C1183      F1187   1.357       .  S
C1184      H1188   1.084       .  S
C1189      C1190   1.409       .  A
C1189      C1194   1.406       .  A
C1189      H1199   1.083       .  S
C1190      C1195   1.487       .  S
C1190      C1191   1.403       .  A
C1191      C1192   1.391       .  A
C1191      F1196   1.358       .  S
C1192      C1193   1.409       .  A
C1192      H1197   1.083       .  S
C1193      C1194   1.409       .  A
C1194      F1198   1.357       .  S
C1195      C1200   1.402       .  A
C1195      C1204   1.405       .  A
C1200      C1201   1.399       .  A
C1200      F1205   1.358       .  S
C1201      C1202   1.417       .  A
C1201      H1206   1.074       .  S
C1202      C1203   1.410       .  A
C1203      C1204   1.398       .  A
C1203      F1207   1.357       .  S
C1204      H1208   1.083       .  S
C1209      C1210   1.408       .  A
C1209      C1214   1.402       .  A
C1209      H1219   1.083       .  S
C1210      C1215   1.494       .  S
C1210      C1211   1.409       .  A
C1211      C1212   1.404       .  A
C1211      F1216   1.357       .  S
C1212      C1213   1.403       .  A
C1212      H1217   1.083       .  S
C1213      C1214   1.404       .  A
C1214      F1218   1.357       .  S
C1215      C1220   1.405       .  A
C1215      C1224   1.408       .  A
C1220      C1221   1.398       .  A
C1220      F1225   1.358       .  S
C1221      C1222   1.411       .  A
C1221      H1226   1.083       .  S
C1222      C1223   1.410       .  A
C1223      C1224   1.407       .  A
C1223      F1227   1.357       .  S
C1224      H1228   1.083       .  S
C1229      C1230   1.405       .  A
C1229      C1234   1.406       .  A
C1229      H1239   1.083       .  S
C1230      C1235   1.490       .  S
C1230      C1231   1.404       .  A
C1231      C1232   1.402       .  A
C1231      F1236   1.357       .  S
C1232      C1233   1.410       .  A
C1232      H1237   1.083       .  S
C1233      C1234   1.413       .  A
C1234      F1238   1.356       .  S
C1235      C1240   1.402       .  A
C1235      C1244   1.408       .  A
C1240      C1241   1.399       .  A
C1240      F1245   1.357       .  S
C1241      C1242   1.411       .  A
C1241      H1246   1.083       .  S
C1242      C1243   1.410       .  A
C1243      C1244   1.409       .  A
C1243      F1247   1.357       .  S
C1244      H1248   1.083       .  S
C1249      C1250   1.400       .  A
C1249      C1254   1.393       .  A
C1249      H1259   1.084       .  S
C1250      C1255   1.473       .  S
C1250      C1251   1.403       .  A
C1251      C1252   1.396       .  A
C1251      F1256   1.358       .  S
C1252      C1253   1.408       .  A
C1252      H1257   1.083       .  S
C1253      C1254   1.413       .  A
C1254      F1258   1.358       .  S
C1255      C1260   1.406       .  A
C1255      C1264   1.403       .  A
C1260      C1261   1.394       .  A
C1260      F1265   1.357       .  S
C1261      C1262   1.401       .  A
C1261      H1266   1.083       .  S
C1262      C1263   1.404       .  A
C1263      C1264   1.394       .  A
C1263      F1267   1.358       .  S
C1264      H1268   1.083       .  S
C1269      C1270   1.401       .  A
C1269      C1274   1.394       .  A
C1269      H1279   1.084       .  S
C1270      C1275   1.470       .  S
C1270      C1271   1.403       .  A
C1271      C1272   1.394       .  A
C1271      F1276   1.358       .  S
C1272      C1273   1.407       .  A
C1272      H1277   1.083       .  S
C1273      C1274   1.409       .  A
C1274      F1278   1.357       .  S
C1275      C1280   1.406       .  A
C1275      C1284   1.403       .  A
C1280      C1281   1.395       .  A
C1280      F1285   1.357       .  S
C1281      C1282   1.400       .  A
C1281      H1286   1.083       .  S
C1282      C1283   1.401       .  A
C1283      C1284   1.393       .  A
C1283      F1287   1.358       .  S
C1284      H1288   1.083       .  S
C1289      C1290   1.404       .  A
C1289      C1294   1.393       .  A
C1289      H1299   1.083       .  S
C1290      C1295   1.479       .  S
C1290      C1291   1.408       .  A
C1291      C1292   1.398       .  A
C1291      F1296   1.358       .  S
C1292      C1293   1.404       .  A
C1292      H1297   1.083       .  S
C1293      C1294   1.402       .  A
C1294      F1298   1.357       .  S
C1295      C1300   1.404       .  A
C1295      C1304   1.403       .  A
C1300      C1301   1.393       .  A
C1300      F1305   1.357       .  S
C1301      C1302   1.406       .  A
C1301      H1306   1.083       .  S
C1302      C1303   1.413       .  A
C1303      C1304   1.398       .  A
C1303      F1307   1.358       .  S
C1304      H1308   1.083       .  S
C1309      C1310   1.401       .  A
C1309      C1314   1.398       .  A
C1309      H1319   1.083       .  S
C1310      C1315   1.477       .  S
C1310      C1311   1.404       .  A
C1311      C1312   1.396       .  A
C1311      F1316   1.358       .  S
C1312      C1313   1.407       .  A
C1312      H1317   1.083       .  S
C1313      C1314   1.413       .  A
C1314      F1318   1.357       .  S
C1315      C1320   1.405       .  A
C1315      C1324   1.405       .  A
C1320      C1321   1.394       .  A
C1320      F1325   1.357       .  S
C1321      C1322   1.401       .  A
C1321      H1326   1.083       .  S
C1322      C1323   1.406       .  A
C1323      C1324   1.400       .  A
C1323      F1327   1.357       .  S
C1324      H1328   1.083       .  S
C1329      C1330   1.403       .  A
C1329      C1334   1.402       .  A
C1329      H1339   1.083       .  S
C1330      C1335   1.494       .  S
C1330      C1331   1.409       .  A
C1331      C1332   1.399       .  A
C1331      F1336   1.357       .  S
C1332      C1333   1.409       .  A
C1332      H1337   1.077       .  S
C1333      C1334   1.416       .  A
C1334      F1338   1.358       .  S
C1335      C1340   1.406       .  A
C1335      C1344   1.411       .  A
C1340      C1341   1.394       .  A
C1340      F1345   1.358       .  S
C1341      C1342   1.406       .  A
C1341      H1346   1.083       .  S
C1342      C1343   1.407       .  A
C1343      C1344   1.408       .  A
C1343      F1347   1.357       .  S
C1344      H1348   1.083       .  S
C1349      C1350   1.407       .  A
C1349      C1354   1.401       .  A
C1349      H1359   1.083       .  S
C1350      C1355   1.491       .  S
C1350      C1351   1.408       .  A
C1351      C1352   1.403       .  A
C1351      F1356   1.357       .  S
C1352      C1353   1.403       .  A
C1352      H1357   1.081       .  S
C1353      C1354   1.405       .  A
C1354      F1358   1.358       .  S
C1355      C1360   1.408       .  A
C1355      C1364   1.402       .  A
C1360      C1361   1.407       .  A
C1360      F1365   1.357       .  S
C1361      C1362   1.409       .  A
C1361      H1366   1.083       .  S
C1362      C1363   1.414       .  A
C1363      C1364   1.398       .  A
C1363      F1367   1.358       .  S
C1364      H1368   1.084       .  S
C1369      C1370   1.402       .  A
C1369      C1374   1.404       .  A
C1369      H1379   1.083       .  S
C1370      C1375   1.482       .  S
C1370      C1371   1.401       .  A
C1371      C1372   1.399       .  A
C1371      F1376   1.358       .  S
C1372      C1373   1.412       .  A
C1372      H1377   1.082       .  S
C1373      C1374   1.412       .  A
C1374      F1378   1.352       .  S
C1375      C1380   1.407       .  A
C1375      C1384   1.399       .  A
C1380      C1381   1.404       .  A
C1380      F1385   1.357       .  S
C1381      C1382   1.407       .  A
C1381      H1386   1.083       .  S
C1382      C1383   1.415       .  A
C1383      C1384   1.398       .  A
C1383      F1387   1.358       .  S
C1384      H1388   1.083       .  S
C1389      C1390   1.410       .  A
C1389      C1394   1.403       .  A
C1389      H1399   1.083       .  S
C1390      C1395   1.494       .  S
C1390      C1391   1.407       .  A
C1391      C1392   1.398       .  A
C1391      F1396   1.357       .  S
C1392      C1393   1.407       .  A
C1392      H1397   1.083       .  S
C1393      C1394   1.405       .  A
C1394      F1398   1.357       .  S
C1395      C1400   1.406       .  A
C1395      C1404   1.410       .  A
C1400      C1401   1.397       .  A
C1400      F1405   1.358       .  S
C1401      C1402   1.409       .  A
C1401      H1406   1.084       .  S
C1402      C1403   1.406       .  A
C1403      C1404   1.406       .  A
C1403      F1407   1.357       .  S
C1404      H1408   1.083       .  S
O1409     Zr1445   2.484       .  S
O1409      C1420   1.302       .  A
O1410     Zr1444   2.476       .  S
O1410      C1421   1.299       .  A
O1411     Zr1417   2.436       .  S
O1411      C1422   1.292       .  A
O1412     Zr1417   2.423       .  S
O1412      C1423   1.289       .  A
O1413     Zr1447   2.423       .  S
O1413      C1423   1.289       .  A
O1414     Zr1446   2.411       .  S
O1414      C1422   1.287       .  A
O1415     Zr1417   2.430       .  S
O1415      C1421   1.291       .  A
O1416     Zr1417   2.415       .  S
O1416      C1420   1.289       .  A
Zr1417     O1418   2.335       .  S
Zr1417     O1419   2.340       .  S
Zr1417     O1427   2.344       .  S
Zr1417     O1425   2.328       .  S
O1418     Zr1444   2.347       .  S
O1418     Zr1447   2.338       .  S
O1419     Zr1445   2.359       .  S
O1419     Zr1446   2.338       .  S
C1420      C2106   1.488       .  S
C1421      C1926   1.493       .  S
C1422      C1957   1.475       .  S
C1423      C1977   1.474       .  S
H1424      O1425   0.966       .  S
O1425     Zr1444   2.346       .  S
O1425     Zr1446   2.337       .  S
H1426      O1427   0.966       .  S
O1427     Zr1445   2.348       .  S
O1427     Zr1447   2.325       .  S
O1428     Zr1444   2.456       .  S
O1428      C1451   1.296       .  A
O1429     Zr1445   2.472       .  S
O1429      C1452   1.298       .  A
O1430     Zr1446   2.432       .  S
O1430      C1453   1.292       .  A
O1431     Zr1447   2.403       .  S
O1431      C1454   1.287       .  A
O1432     Zr1447   2.425       .  S
O1432      C1455   1.290       .  A
O1433     Zr1446   2.436       .  S
O1433      C1456   1.292       .  A
O1434     Zr1448   2.418       .  S
O1434      C1457   1.288       .  A
O1435     Zr1448   2.430       .  S
O1435      C1458   1.290       .  A
O1436     Zr1446   2.422       .  S
O1436      C1457   1.289       .  A
O1437     Zr1447   2.422       .  S
O1437      C1458   1.289       .  A
O1438     Zr1444   2.475       .  S
O1438      C1453   1.300       .  A
O1439     Zr1445   2.461       .  S
O1439      C1456   1.297       .  A
O1440     Zr1445   2.473       .  S
O1440      C1455   1.298       .  A
O1441     Zr1444   2.477       .  S
O1441      C1454   1.299       .  A
O1442     Zr1448   2.426       .  S
O1442      C1451   1.290       .  A
O1443     Zr1448   2.427       .  S
O1443      C1452   1.290       .  A
Zr1444     O1450   2.354       .  S
Zr1444     O1462   2.351       .  S
Zr1445     O1449   2.347       .  S
Zr1445     O1460   2.359       .  S
Zr1446     O1450   2.332       .  S
Zr1446     O1460   2.334       .  S
Zr1447     O1449   2.327       .  S
Zr1447     O1462   2.333       .  S
Zr1448     O1449   2.337       .  S
Zr1448     O1450   2.332       .  S
Zr1448     O1462   2.334       .  S
Zr1448     O1460   2.338       .  S
C1451      C1946   1.473       .  S
C1452      C2086   1.476       .  S
C1453      C1886   1.498       .  S
C1454      C1897   1.491       .  S
C1455      C2046   1.485       .  S
C1456      C2066   1.495       .  S
C1457      C2017   1.477       .  S
C1458      C2006   1.476       .  S
H1459      O1460   0.967       .  S
H1461      O1462   0.966       .  S
N1463      H1495   1.039       .  S
N1463      C2172   1.351       .  A
N1463      C1467   1.350       .  A
N1464      C1472   1.348       .  A
N1465      H1496   1.040       .  S
N1465      C2174   1.350       .  A
N1465      C1469   1.351       .  A
N1466      C1474   1.351       .  A
C1467      C1475   1.388       .  A
C1467      C1483   1.410       .  A
C1468      N2167   1.351   1_545  A
C1468      C1484   1.409       .  A
C1468      C1476   1.386       .  A
C1469      C1477   1.387       .  A
C1469      C1486   1.409       .  A
C1470      N2169   1.350       .  A
C1470      C1485   1.411       .  A
C1470      C1478   1.387       .  A
C1471      C1483   1.409       .  A
C1471      C1479   1.387       .  A
C1472      C1486   1.406       .  A
C1472      C1480   1.385       .  A
C1473      C1481   1.386       .  A
C1473      C1484   1.406       .  A
C1474      C1482   1.385       .  A
C1474      C1485   1.410       .  A
C1475      C2180   1.374       .  A
C1475      H1487   1.082       .  S
C1476      C2179   1.372   1_545  A
C1476      H1488   1.082       .  S
C1477      C2182   1.372       .  A
C1477      H1489   1.082       .  S
C1478      C2181   1.371   1_545  A
C1478      H1490   1.083       .  S
C1479      H1491   1.082       .  S
C1480      H1492   1.082       .  S
C1481      H1493   1.082       .  S
C1482      H1494   1.082       .  S
C1483      C2026   1.474       .  S
C1484      C1966   1.473       .  S
C1485      C1986   1.475       .  S
C1486      C1997   1.474       .  S
O1497     Zr1533   2.466       .  S
O1497      C1508   1.298       .  A
O1498     Zr1532   2.451       .  S
O1498      C1509   1.294       .  A
O1499      C1510   1.291       .  A
O1500     Zr1505   2.413   1_554  S
O1500      C1511   1.288       .  A
O1501     Zr1535   2.425       .  S
O1501      C1511   1.290       .  A
O1502     Zr1534   2.417       .  S
O1502      C1510   1.289       .  A
O1503     Zr1505   2.419   1_554  S
O1503      C1509   1.290       .  A
O1504     Zr1505   2.424       .  S
O1504      C1508   1.290       .  A
Zr1505     O1506   2.331   1_556  S
Zr1505     O1515   2.333       .  S
O1506     Zr1532   2.350       .  S
O1506     Zr1535   2.333       .  S
O1507     Zr1534   2.334       .  S
C1508      C1857   1.481       .  S
C1509      C1677   1.477       .  S
C1510      C1717   1.477       .  S
C1511      C1737   1.473       .  S
H1512      O1513   0.965       .  S
O1513     Zr1534   2.337   1_554  S
H1514      O1515   0.965       .  S
O1515     Zr1533   2.357       .  S
O1515     Zr1535   2.341   1_556  S
O1516     Zr2236   2.479   1_545  S
O1516      C1539   1.300       .  A
O1517     Zr2237   2.475   1_545  S
O1517      C1540   1.300       .  A
O1518     Zr1534   2.432   1_554  S
O1518      C1541   1.292       .  A
O1519     Zr1535   2.451       .  S
O1519      C1542   1.296       .  A
O1520     Zr1535   2.446   1_556  S
O1520      C2247   1.295       .  A
O1521     Zr1534   2.424       .  S
O1521      C2248   1.290       .  A
O1522      C1545   1.292       .  A
O1523     Zr1536   2.457   1_554  S
O1523      C1546   1.296       .  A
O1524     Zr2238   2.425       .  S
O1524      C1545   1.289       .  A
O1525     Zr2239   2.413   1_545  S
O1525      C1546   1.287   1_556  A
O1526      C1541   1.297       .  A
O1527      C1544   1.297       .  A
O1528     Zr2237   2.467       .  S
O1528      C1543   1.298       .  A
O1529     Zr1532   2.436       .  S
O1529      C1542   1.292       .  A
O1530     Zr1536   2.422   1_554  S
O1530      C1539   1.291       .  A
O1531     Zr1536   2.419       .  S
O1531      C1540   1.290       .  A
Zr1532     O2220   2.458       .  S
Zr1532     O2254   2.351       .  S
Zr1533     O2221   2.466       .  S
Zr1533     O2232   2.452       .  S
Zr1533     O2241   2.354       .  S
Zr1534     O2228   2.432       .  S
Zr1534     O2242   2.329   1_556  S
Zr1534     O2252   2.340       .  S
Zr1535     O2229   2.422       .  S
Zr1535     O2241   2.333   1_554  S
Zr1535     O2254   2.337       .  S
Zr1536     O1537   2.336       .  S
Zr1536     O1550   2.333   1_556  S
O1537     Zr2237   2.351   1_545  S
O1537     Zr2239   2.331   1_545  S
O1538     Zr2238   2.336   1_554  S
C1539      C1706   1.493       .  S
C1540      C1846   1.486       .  S
C1541      C1637   1.490       .  S
C1542      C1657   1.480       .  S
C1543      O2224   1.292       .  A
C1543      C1806   1.491       .  S
C1544      O2225   1.290       .  A
C1544      C1826   1.475       .  S
C1545      C1786   1.484       .  S
C1546      C1766   1.488       .  S
H1547      O1548   0.965       .  S
O1548     Zr2238   2.339       .  S
H1549      O1550   0.965       .  S
O1550     Zr2236   2.343   1_545  S
O1550     Zr2239   2.329   1_544  S
N1551      H1583   1.039       .  S
N1551      C1556   1.352   1_554  A
N1551      C1555   1.350   1_554  A
N1552      C1559   1.348       .  A
N1552      C1560   1.350       .  A
N1553      H1584   1.039       .  S
N1553      C1558   1.349       .  A
N1553      C1557   1.353       .  A
N1554      C1561   1.351       .  A
N1554      C1562   1.348       .  A
C1555      C1563   1.387       .  A
C1555      C1571   1.411   1_556  A
C1556      C1572   1.411       .  A
C1556      C1564   1.386       .  A
C1557      C1565   1.387   1_554  A
C1557      C1574   1.412       .  A
C1558      C1573   1.409       .  A
C1558      C1566   1.387   1_554  A
C1559      C1571   1.410       .  A
C1559      C1567   1.387       .  A
C1560      C1574   1.408       .  A
C1560      C1568   1.385       .  A
C1561      C1569   1.387       .  A
C1561      C1572   1.411   1_554  A
C1562      C1570   1.386       .  A
C1562      C1573   1.409       .  A
C1563      C1564   1.373       .  A
C1563      H1575   1.082       .  S
C1564      H1576   1.082       .  S
C1565      C1566   1.373       .  A
C1565      H1577   1.082       .  S
C1566      H1578   1.082       .  S
C1567      C1568   1.373       .  A
C1567      H1579   1.082       .  S
C1568      H1580   1.082       .  S
C1569      C1570   1.372       .  A
C1569      H1581   1.082       .  S
C1570      H1582   1.082       .  S
C1571      C1777   1.477       .  S
C1572      C1726   1.484       .  S
C1573      C1746   1.472       .  S
C1574      C1757   1.482       .  S
C1585      C1586   1.541       .  S
C1585      C1589   1.523       .  S
C1585      C2037   1.537       .  S
C1586      H1593   1.085       .  S
C1587      C1588   1.546   1_455  S
C1587      C1697   1.492       .  S
C1588      C1592   1.540       .  S
C1588      C1590   1.549   1_655  S
C1588      H1594   1.109       .  S
C1589      H1595   1.086       .  S
C1590      C1686   1.495       .  S
C1591      H1596   1.082       .  S
C1591      C1592   1.366   1_455  D
C1592      C2057   1.485       .  S
C1597      C1598   1.531       .  S
C1597      C1603   1.548       .  S
C1597      C2305   1.537       .  S
C1597      C1646   1.540       .  S
C1598      H1605   1.087       .  S
C1598      C1599   1.365       .  D
C1599      C1600   1.542       .  S
C1599      C2077   1.486       .  S
C1600      C1604   1.538       .  S
C1600      C2306   1.550       .  S
C1600      H1606   1.107       .  S
C1601      C2301   1.532   1_545  S
C1601      H1607   1.086       .  S
C1601      C1602   1.369       .  D
C1602      C2304   1.556   1_545  S
C1602      C2097   1.500       .  S
C1603      H1608   1.081       .  S
C1603      C1604   1.370       .  D
C1604      C1666   1.491       .  S
C1609      C1610   1.531       .  S
C1609      C1613   1.541       .  S
C1609      C1906   1.536       .  S
C1610      H1617   1.086       .  S
C1611      C1612   1.552   1_455  S
C1611      C1866   1.505       .  S
C1612      C1616   1.548       .  S
C1612      C1614   1.548   1_655  S
C1612      H1618   1.107       .  S
C1613      H1619   1.080       .  S
C1614      C1837   1.500       .  S
C1615      H1620   1.086       .  S
C1615      C1616   1.369   1_455  D
C1616      C1877   1.490       .  S
C1621      C2326   1.540       .  S
C1621      C1627   1.543       .  S
C1621      C1625   1.532       .  S
C1621      C1817   1.536       .  S
C1622      C2325   1.536       .  S
C1622      H1629   1.086       .  S
C1622      C1623   1.367       .  D
C1623      C2328   1.547   1_545  S
C1623      C1917   1.482       .  S
C1624      C2327   1.544       .  S
C1624      C1628   1.537       .  S
C1624      C1626   1.545       .  S
C1624      H1630   1.111       .  S
C1625      H1631   1.087       .  S
C1625      C1626   1.364       .  D
C1626      C1937   1.484       .  S
C1627      H1632   1.080       .  S
C1627      C1628   1.364       .  D
C1628      C1797   1.480       .  S
C1633      C2338   1.402   1_545  A
C1633      C1638   1.394       .  A
C1633      H1643   1.083       .  S
C1634      C1639   1.498       .  S
C1634      C2337   1.404       .  A
C1634      C1635   1.413       .  A
C1635      C1636   1.410       .  A
C1635      F1640   1.357       .  S
C1636      C1637   1.408       .  A
C1636      H1641   1.083       .  S
C1637      C2342   1.408       .  A
C1638      C2341   1.407   1_545  A
C1638      F1642   1.358       .  S
C1639      C1644   1.409       .  A
C1639      C1648   1.405       .  A
C1644      C1645   1.398       .  A
C1644      F1649   1.358       .  S
C1645      C1646   1.410       .  A
C1645      H2354   1.076       .  S
C1646      C1647   1.416       .  A
C1647      C1648   1.405       .  A
C1647      F1651   1.358       .  S
C1648      H1652   1.082       .  S
H1650      C2349   1.076       .  S
C1653      C1654   1.404       .  A
C1653      C1658   1.405       .  A
C1653      H1663   1.083       .  S
C1654      C1659   1.475       .  S
C1654      C2359   1.401       .  A
C1655      C2358   1.404       .  A
C1655      C1656   1.395       .  A
C1655      F1660   1.358       .  S
C1656      C2361   1.410       .  A
C1656      H1661   1.083       .  S
C1657      C2360   1.404       .  A
C1657      C1658   1.412       .  A
C1658      F1662   1.358       .  S
C1659      C1664   1.403       .  A
C1659      C2372   1.401       .  A
C1664      C1665   1.396       .  A
C1664      F1669   1.358       .  S
C1665      C1666   1.406       .  A
C1665      H1670   1.083       .  S
C1666      C2371   1.411       .  A
C1667      C2370   1.407   1_545  A
C1667      C1668   1.406       .  A
C1667      F1671   1.357       .  S
C1668      C2363   1.406   1_545  A
C1668      H1672   1.083       .  S
C1673      C1678   1.405       .  A
C1673      H1683   1.083       .  S
C1674      C1679   1.476       .  S
C1674      C1675   1.401       .  A
C1675      C1676   1.392       .  A
C1675      F1680   1.357       .  S
C1676      C1677   1.406       .  A
C1676      H1681   1.084       .  S
C1678      F1682   1.357       .  S
C1679      C1688   1.401       .  A
C1684      C1685   1.398       .  A
C1684      F1689   1.358       .  S
C1685      H1690   1.082       .  S
C1686      C1687   1.410   1_455  A
C1687      C1688   1.399       .  A
C1687      F1691   1.352       .  S
C1688      H1692   1.084       .  S
C1693      C1694   1.400   1_455  A
C1693      C1698   1.397       .  A
C1693      H1703   1.084       .  S
C1694      C1699   1.481       .  S
C1695      C1696   1.406       .  A
C1695      F1700   1.357       .  S
C1696      H1701   1.082       .  S
C1697      C1698   1.410       .  A
C1698      F1702   1.357       .  S
C1699      C1704   1.400       .  A
C1704      C1705   1.399       .  A
C1704      F1709   1.358       .  S
C1705      C1706   1.412       .  A
C1705      H1710   1.083       .  S
C1707      C1708   1.406       .  A
C1707      F1711   1.357       .  S
C1708      H1712   1.083       .  S
C1713      C1714   1.400       .  A
C1713      C1718   1.394       .  A
C1713      H1723   1.083       .  S
C1714      C1719   1.468       .  S
C1714      C1715   1.402   1_556  A
C1715      C1716   1.395       .  A
C1715      F1720   1.358       .  S
C1716      C1717   1.408   1_554  A
C1716      H1721   1.083       .  S
C1717      C1718   1.409       .  A
C1718      F1722   1.357       .  S
C1719      C1724   1.402   1_556  A
C1719      C1728   1.402       .  A
C1724      C1725   1.393       .  A
C1724      F1729   1.358       .  S
C1725      C1726   1.404   1_554  A
C1725      H1730   1.083       .  S
C1726      C1727   1.406       .  A
C1727      C1728   1.397       .  A
C1727      F1731   1.357       .  S
C1728      H1732   1.083       .  S
C1733      C1734   1.402   1_556  A
C1733      C1738   1.391       .  A
C1733      H1743   1.084       .  S
C1734      C1739   1.469       .  S
C1734      C1735   1.403       .  A
C1735      C1736   1.392       .  A
C1735      F1740   1.358       .  S
C1736      C1737   1.407       .  A
C1736      H1741   1.083       .  S
C1737      C1738   1.408   1_554  A
C1738      F1742   1.358       .  S
C1739      C1744   1.406       .  A
C1739      C1748   1.403   1_554  A
C1744      C1745   1.394       .  A
C1744      F1749   1.358       .  S
C1745      C1746   1.401       .  A
C1745      H1750   1.083       .  S
C1746      C1747   1.401   1_554  A
C1747      C1748   1.391       .  A
C1747      F1751   1.357       .  S
C1748      H1752   1.083       .  S
C1753      C1754   1.404       .  A
C1753      C1758   1.398       .  A
C1753      H1763   1.083       .  S
C1754      C1759   1.476       .  S
C1754      C1755   1.405   1_554  A
C1755      C1756   1.397       .  A
C1755      F1760   1.358       .  S
C1756      C1757   1.402   1_556  A
C1756      H1761   1.083       .  S
C1757      C1758   1.404       .  A
C1758      F1762   1.357       .  S
C1759      C1764   1.403       .  A
C1759      C1768   1.400       .  A
C1764      C1765   1.398       .  A
C1764      F1769   1.357       .  S
C1765      C1766   1.407       .  A
C1765      H1770   1.083       .  S
C1766      C1767   1.416       .  A
C1767      C1768   1.396       .  A
C1767      F1771   1.358       .  S
C1768      H1772   1.084       .  S
C1773      C1774   1.405   1_556  A
C1773      C1778   1.395       .  A
C1773      H1783   1.083       .  S
C1774      C1779   1.475       .  S
C1774      C1775   1.406       .  A
C1775      C1776   1.396       .  A
C1775      F1780   1.357       .  S
C1776      C1777   1.401       .  A
C1776      H1781   1.083       .  S
C1777      C1778   1.402   1_554  A
C1778      F1782   1.358       .  S
C1779      C1784   1.405       .  A
C1779      C1788   1.400       .  A
C1784      C1785   1.398   1_554  A
C1784      F1789   1.358       .  S
C1785      C1786   1.408       .  A
C1785      H1790   1.083       .  S
C1786      C1787   1.412   1_556  A
C1787      C1788   1.393       .  A
C1787      F1791   1.357       .  S
C1788      H1792   1.084       .  S
C1793      C2498   1.406   1_545  A
C1793      C1798   1.408       .  A
C1793      H1803   1.083       .  S
C1794      C1799   1.487       .  S
C1794      C2497   1.407       .  A
C1794      C1795   1.407       .  A
C1795      C1796   1.394       .  A
C1795      F1800   1.358       .  S
C1796      C1797   1.401       .  A
C1796      H1801   1.084       .  S
C1797      C2502   1.406       .  A
C1798      C2501   1.410   1_545  A
C1798      F1802   1.357       .  S
C1799      C2508   1.406       .  A
C1799      C1808   1.401       .  A
C1804      C2503   1.406       .  A
C1804      C1805   1.406       .  A
C1804      F1809   1.357       .  S
C1805      C1806   1.409       .  A
C1805      H1810   1.083       .  S
C1806      C2511   1.412   1_565  A
C1807      C2510   1.412       .  A
C1807      C1808   1.394       .  A
C1807      F1811   1.357       .  S
C1808      H1812   1.084       .  S
C1813      C2518   1.404       .  A
C1813      C1818   1.400       .  A
C1813      H1823   1.083       .  S
C1814      C1819   1.490       .  S
C1814      C2517   1.404   1_565  A
C1814      C1815   1.405       .  A
C1815      C1816   1.398       .  A
C1815      F1820   1.358       .  S
C1816      C2521   1.413   1_565  A
C1816      H1821   1.076       .  S
C1817      C2520   1.413       .  A
C1817      C1818   1.413       .  A
C1818      F1822   1.357       .  S
C1819      C2528   1.409   1_565  A
C1819      C1828   1.407       .  A
C1824      C2523   1.410       .  A
C1824      C1825   1.402       .  A
C1824      F1829   1.357       .  S
C1825      C2530   1.402       .  A
C1825      H1830   1.083       .  S
C1826      C2529   1.401   1_565  A
C1826      C1827   1.408       .  A
C1827      C1828   1.400       .  A
C1827      F1831   1.359       .  S
C1828      H1832   1.083       .  S
C1833      C1834   1.406       .  A
C1833      C1838   1.407       .  A
C1833      H1843   1.083       .  S
C1834      C1839   1.487       .  S
C1835      C1836   1.396       .  A
C1835      F1840   1.358       .  S
C1836      H1841   1.084       .  S
C1837      C1838   1.411   1_455  A
C1838      F1842   1.356       .  S
C1839      C1844   1.403       .  A
C1844      C1845   1.399       .  A
C1844      F1849   1.358       .  S
C1845      C1846   1.410       .  A
C1845      H1850   1.084       .  S
C1847      C1848   1.407       .  A
C1847      F1851   1.357       .  S
C1848      H1852   1.083       .  S
C1853      C1854   1.409   1_455  A
C1853      C1858   1.402       .  A
C1853      H1863   1.083       .  S
C1854      C1859   1.493       .  S
C1855      C1856   1.394       .  A
C1855      F1860   1.358       .  S
C1856      H1861   1.083       .  S
C1857      C1858   1.404   1_655  A
C1858      F1862   1.357       .  S
C1859      C1864   1.408       .  A
C1864      C1865   1.405       .  A
C1864      F1869   1.357       .  S
C1865      C1866   1.408   1_655  A
C1865      H1870   1.079       .  S
C1867      C1868   1.394       .  A
C1867      F1871   1.358       .  S
C1868      H1872   1.084       .  S
C1873      C1874   1.408       .  A
C1873      C1878   1.406       .  A
C1873      H1883   1.083       .  S
C1874      C1879   1.497       .  S
C1874      C1875   1.410       .  A
C1875      C1876   1.400       .  A
C1875      F1880   1.358       .  S
C1876      C1877   1.403       .  A
C1876      H1881   1.083       .  S
C1877      C1878   1.406       .  A
C1878      F1882   1.355       .  S
C1879      C1884   1.410       .  A
C1879      C1888   1.403       .  A
C1884      C1885   1.409       .  A
C1884      F1889   1.357       .  S
C1885      C1886   1.409       .  A
C1885      H1890   1.083       .  S
C1886      C1887   1.414       .  A
C1887      C1888   1.397       .  A
C1887      F1891   1.358       .  S
C1888      H1892   1.083       .  S
C1893      C1894   1.409       .  A
C1893      C1898   1.405       .  A
C1893      H1903   1.083       .  S
C1894      C1899   1.486       .  S
C1894      C1895   1.402       .  A
C1895      C1896   1.391       .  A
C1895      F1900   1.358       .  S
C1896      C1897   1.412       .  A
C1896      H1901   1.083       .  S
C1897      C1898   1.408       .  A
C1898      F1902   1.357       .  S
C1899      C1904   1.402       .  A
C1899      C1908   1.405       .  A
C1904      C1905   1.397       .  A
C1904      F1909   1.358       .  S
C1905      C1906   1.414       .  A
C1905      H1910   1.074       .  S
C1906      C1907   1.412       .  A
C1907      C1908   1.399       .  A
C1907      F1911   1.358       .  S
C1908      H1912   1.083       .  S
C1913      C1914   1.411       .  A
C1913      C1918   1.404       .  A
C1913      H1923   1.083       .  S
C1914      C1919   1.499       .  S
C1914      C1915   1.410       .  A
C1915      C1916   1.401       .  A
C1915      F1920   1.357       .  S
C1916      C1917   1.402       .  A
C1916      H1921   1.083       .  S
C1917      C1918   1.403       .  A
C1918      F1922   1.358       .  S
C1919      C1924   1.408       .  A
C1919      C1928   1.411       .  A
C1924      C1925   1.400       .  A
C1924      F1929   1.358       .  S
C1925      C1926   1.409       .  A
C1925      H1930   1.083       .  S
C1926      C1927   1.408       .  A
C1927      C1928   1.406       .  A
C1927      F1931   1.357       .  S
C1928      H1932   1.083       .  S
C1933      C1934   1.405       .  A
C1933      C1938   1.402       .  A
C1933      H1943   1.083       .  S
C1934      C1939   1.483       .  S
C1934      C1935   1.406       .  A
C1935      C1936   1.397       .  A
C1935      F1940   1.358       .  S
C1936      C1937   1.405       .  A
C1936      H1941   1.083       .  S
C1937      C1938   1.407       .  A
C1938      F1942   1.357       .  S
C1939      C1944   1.406       .  A
C1939      C1948   1.406       .  A
C1944      C1945   1.399       .  A
C1944      F1949   1.357       .  S
C1945      C1946   1.405       .  A
C1945      H1950   1.084       .  S
C1946      C1947   1.404       .  A
C1947      C1948   1.400       .  A
C1947      F1951   1.358       .  S
C1948      H1952   1.083       .  S
C1953      C1954   1.402       .  A
C1953      C1958   1.391       .  A
C1953      H1963   1.083       .  S
C1954      C1959   1.476       .  S
C1954      C1955   1.406       .  A
C1955      C1956   1.394       .  A
C1955      F1960   1.357       .  S
C1956      C1957   1.405       .  A
C1956      H1961   1.083       .  S
C1957      C1958   1.410       .  A
C1958      F1962   1.358       .  S
C1959      C1964   1.408       .  A
C1959      C1968   1.406       .  A
C1964      C1965   1.391       .  A
C1964      F1969   1.358       .  S
C1965      C1966   1.399       .  A
C1965      H1970   1.084       .  S
C1966      C1967   1.401       .  A
C1967      C1968   1.395       .  A
C1967      F1971   1.357       .  S
C1968      H1972   1.083       .  S
C1973      C1974   1.401       .  A
C1973      C1978   1.392       .  A
C1973      H1983   1.083       .  S
C1974      C1979   1.472       .  S
C1974      C1975   1.405       .  A
C1975      C1976   1.395       .  A
C1975      F1980   1.358       .  S
C1976      C1977   1.406       .  A
C1976      H1981   1.083       .  S
C1977      C1978   1.408       .  A
C1978      F1982   1.358       .  S
C1979      C1984   1.406       .  A
C1979      C1988   1.404       .  A
C1984      C1985   1.395       .  A
C1984      F1989   1.358       .  S
C1985      C1986   1.401       .  A
C1985      H1990   1.083       .  S
C1986      C1987   1.401       .  A
C1987      C1988   1.393       .  A
C1987      F1991   1.357       .  S
C1988      H1992   1.083       .  S
C1993      C1994   1.406       .  A
C1993      C1998   1.394       .  A
C1993      H2003   1.083       .  S
C1994      C1999   1.480       .  S
C1994      C1995   1.409       .  A
C1995      C1996   1.395       .  A
C1995      F2000   1.357       .  S
C1996      C1997   1.399       .  A
C1996      H2001   1.083       .  S
C1997      C1998   1.401       .  A
C1998      F2002   1.358       .  S
C1999      C2004   1.407       .  A
C1999      C2008   1.405       .  A
C2004      C2005   1.393       .  A
C2004      F2009   1.358       .  S
C2005      C2006   1.405       .  A
C2005      H2010   1.083       .  S
C2006      C2007   1.408       .  A
C2007      C2008   1.395       .  A
C2007      F2011   1.358       .  S
C2008      H2012   1.083       .  S
C2013      C2014   1.398       .  A
C2013      C2018   1.392       .  A
C2013      H2023   1.084       .  S
C2014      C2019   1.465       .  S
C2014      C2015   1.402       .  A
C2015      C2016   1.394       .  A
C2015      F2020   1.358       .  S
C2016      C2017   1.407       .  A
C2016      H2021   1.083       .  S
C2017      C2018   1.412       .  A
C2018      F2022   1.358       .  S
C2019      C2024   1.404       .  A
C2019      C2028   1.402       .  A
C2024      C2025   1.393       .  A
C2024      F2029   1.358       .  S
C2025      C2026   1.402       .  A
C2025      H2030   1.083       .  S
C2026      C2027   1.403       .  A
C2027      C2028   1.393       .  A
C2027      F2031   1.357       .  S
C2028      H2032   1.083       .  S
C2033      C2034   1.404       .  A
C2033      C2038   1.405       .  A
C2033      H2043   1.083       .  S
C2034      C2039   1.489       .  S
C2034      C2035   1.404       .  A
C2035      C2036   1.396       .  A
C2035      F2040   1.358       .  S
C2036      C2037   1.412       .  A
C2036      H2041   1.078       .  S
C2037      C2038   1.416       .  A
C2038      F2042   1.357       .  S
C2039      C2044   1.405       .  A
C2039      C2048   1.408       .  A
C2044      C2045   1.395       .  A
C2044      F2049   1.358       .  S
C2045      C2046   1.405       .  A
C2045      H2050   1.084       .  S
C2046      C2047   1.409       .  A
C2047      C2048   1.408       .  A
C2047      F2051   1.357       .  S
C2048      H2052   1.083       .  S
C2053      C2054   1.407       .  A
C2053      C2058   1.398       .  A
C2053      H2063   1.083       .  S
C2054      C2059   1.492       .  S
C2054      C2055   1.409       .  A
C2055      C2056   1.404       .  A
C2055      F2060   1.357       .  S
C2056      C2057   1.404       .  A
C2056      H2061   1.079       .  S
C2057      C2058   1.403       .  A
C2058      F2062   1.358       .  S
C2059      C2064   1.409       .  A
C2059      C2068   1.402       .  A
C2064      C2065   1.408       .  A
C2064      F2069   1.357       .  S
C2065      C2066   1.410       .  A
C2065      H2070   1.083       .  S
C2066      C2067   1.413       .  A
C2067      C2068   1.394       .  A
C2067      F2071   1.357       .  S
C2068      H2072   1.083       .  S
C2073      C2074   1.408       .  A
C2073      C2078   1.404       .  A
C2073      H2083   1.083       .  S
C2074      C2079   1.493       .  S
C2074      C2075   1.408       .  A
C2075      C2076   1.398       .  A
C2075      F2080   1.357       .  S
C2076      C2077   1.403       .  A
C2076      H2081   1.083       .  S
C2077      C2078   1.407       .  A
C2078      F2082   1.358       .  S
C2079      C2084   1.412       .  A
C2079      C2088   1.406       .  A
C2084      C2085   1.401       .  A
C2084      F2089   1.357       .  S
C2085      C2086   1.401       .  A
C2085      H2090   1.083       .  S
C2086      C2087   1.406       .  A
C2087      C2088   1.402       .  A
C2087      F2091   1.358       .  S
C2088      H2092   1.083       .  S
C2093      C2094   1.408       .  A
C2093      C2098   1.406       .  A
C2093      H2103   1.083       .  S
C2094      C2099   1.491       .  S
C2094      C2095   1.404       .  A
C2095      C2096   1.399       .  A
C2095      F2100   1.358       .  S
C2096      C2097   1.411       .  A
C2096      H2101   1.082       .  S
C2097      C2098   1.408       .  A
C2098      F2102   1.356       .  S
C2099      C2104   1.405       .  A
C2099      C2108   1.409       .  A
C2104      C2105   1.398       .  A
C2104      F2109   1.358       .  S
C2105      C2106   1.410       .  A
C2105      H2110   1.084       .  S
C2106      C2107   1.405       .  A
C2107      C2108   1.405       .  A
C2107      F2111   1.357       .  S
C2108      H2112   1.083       .  S
O2113     Zr2149   2.477       .  S
O2113      C2124   1.300       .  A
O2114     Zr2148   2.474       .  S
O2114      C2125   1.299       .  A
O2115     Zr2121   2.428       .  S
O2115      C2126   1.290       .  A
O2116     Zr2121   2.433       .  S
O2116      C2127   1.291       .  A
O2117     Zr2151   2.422       .  S
O2117      C2127   1.288       .  A
O2118     Zr2150   2.423       .  S
O2118      C2126   1.289       .  A
O2119     Zr2121   2.444       .  S
O2119      C2125   1.293       .  A
O2120     Zr2121   2.437       .  S
O2120      C2124   1.293       .  A
Zr2121     O2122   2.341       .  S
Zr2121     O2123   2.344       .  S
Zr2121     O2131   2.344       .  S
Zr2121     O2129   2.338       .  S
O2122     Zr2148   2.360       .  S
O2122     Zr2151   2.340       .  S
O2123     Zr2149   2.360       .  S
O2123     Zr2150   2.337       .  S
C2124      C2810   1.496       .  S
C2125      C2630   1.492       .  S
C2126      C2661   1.481       .  S
C2127      C2681   1.482       .  S
H2128      O2129   0.966       .  S
O2129     Zr2148   2.352       .  S
O2129     Zr2150   2.337       .  S
H2130      O2131   0.966       .  S
O2131     Zr2149   2.357       .  S
O2131     Zr2151   2.331       .  S
O2132     Zr2148   2.479       .  S
O2132      C2155   1.300       .  A
O2133     Zr2149   2.486       .  S
O2133      C2156   1.301       .  A
O2134     Zr2150   2.426       .  S
O2134      C2157   1.291       .  A
O2135     Zr2151   2.413       .  S
O2135      C2158   1.289       .  A
O2136     Zr2151   2.424       .  S
O2136      C2159   1.290       .  A
O2137     Zr2150   2.435       .  S
O2137      C2160   1.292       .  A
O2138     Zr2152   2.428       .  S
O2138      C2161   1.289       .  A
O2139     Zr2152   2.426       .  S
O2139      C2162   1.290       .  A
O2140     Zr2150   2.431       .  S
O2140      C2161   1.291       .  A
O2141     Zr2151   2.433       .  S
O2141      C2162   1.291       .  A
O2142     Zr2148   2.484       .  S
O2142      C2157   1.301       .  A
O2143     Zr2149   2.466       .  S
O2143      C2160   1.298       .  A
O2144     Zr2149   2.472       .  S
O2144      C2159   1.298       .  A
O2145     Zr2148   2.483       .  S
O2145      C2158   1.301       .  A
O2146     Zr2152   2.418       .  S
O2146      C2155   1.290       .  A
O2147     Zr2152   2.424       .  S
O2147      C2156   1.290       .  A
Zr2148     O2154   2.356       .  S
Zr2148     O2166   2.347       .  S
Zr2149     O2153   2.352       .  S
Zr2149     O2164   2.353       .  S
Zr2150     O2154   2.336       .  S
Zr2150     O2164   2.332       .  S
Zr2151     O2153   2.335       .  S
Zr2151     O2166   2.331       .  S
Zr2152     O2153   2.336       .  S
Zr2152     O2154   2.335       .  S
Zr2152     O2166   2.331       .  S
Zr2152     O2164   2.333       .  S
C2155      C2650   1.497       .  S
C2156      C2790   1.501       .  S
C2157      C2590   1.496       .  S
C2158      C2601   1.497       .  S
C2159      C2750   1.481       .  S
C2160      C2770   1.497       .  S
C2161      C2721   1.484       .  S
C2162      C2710   1.473       .  S
H2163      O2164   0.966       .  S
H2165      O2166   0.966       .  S
N2167      H2199   1.038       .  S
N2167      C2171   1.351       .  A
N2168      C2176   1.351       .  A
N2169      H2200   1.034       .  S
N2169      C2173   1.351   1_545  A
N2170      C2178   1.347       .  A
C2171      C2179   1.389       .  A
C2171      C2187   1.412       .  A
C2172      C2188   1.411       .  A
C2172      C2180   1.387       .  A
C2173      C2181   1.388       .  A
C2173      C2190   1.412       .  A
C2174      C2189   1.409       .  A
C2174      C2182   1.387       .  A
C2175      C2187   1.413       .  A
C2175      C2183   1.386       .  A
C2176      C2190   1.414       .  A
C2176      C2184   1.386       .  A
C2177      C2185   1.386       .  A
C2177      C2188   1.410       .  A
C2178      C2186   1.385       .  A
C2178      C2189   1.406       .  A
C2179      H2191   1.082       .  S
C2180      H2192   1.082       .  S
C2181      H2193   1.082       .  S
C2182      H2194   1.082       .  S
C2183      H2195   1.082       .  S
C2184      H2196   1.082       .  S
C2185      H2197   1.082       .  S
C2186      H2198   1.082       .  S
C2187      C2730   1.481       .  S
C2188      C2670   1.481       .  S
C2189      C2690   1.473       .  S
C2190      C2701   1.476       .  S
O2201     Zr2237   2.478       .  S
O2201      C2212   1.300       .  A
O2202     Zr2236   2.477       .  S
O2202      C2213   1.300       .  A
O2203      C2214   1.292       .  A
O2204     Zr2209   2.422       .  S
O2204      C2215   1.289       .  A
O2205     Zr2239   2.409   1_554  S
O2205      C2215   1.287       .  A
O2206     Zr2238   2.417   1_565  S
O2206      C2214   1.288       .  A
O2207     Zr2209   2.415       .  S
O2207      C2213   1.289       .  A
O2208     Zr2209   2.430   1_556  S
O2208      C2212   1.292       .  A
Zr2209     O2210   2.339       .  S
Zr2209     O2219   2.341   1_554  S
O2210     Zr2236   2.346       .  S
O2210     Zr2239   2.331   1_554  S
O2211     Zr2238   2.334   1_565  S
C2212      C2561   1.496       .  S
C2213      C2381   1.490       .  S
C2214      C2421   1.482       .  S
C2215      C2441   1.463       .  S
H2216      O2217   0.965       .  S
O2217     Zr2238   2.335   1_564  S
H2218      O2219   0.965       .  S
O2219     Zr2237   2.355       .  S
O2219     Zr2239   2.338       .  S
O2220      C2243   1.296       .  A
O2221      C2244   1.298       .  A
O2222     Zr2238   2.429   1_564  S
O2222      C2245   1.291       .  A
O2223     Zr2239   2.430   1_544  S
O2223      C2246   1.292       .  A
O2224     Zr2239   2.431       .  S
O2225     Zr2238   2.426   1_565  S
O2226      C2249   1.292       .  A
O2227     Zr2240   2.441   1_554  S
O2227      C2250   1.292       .  A
O2228      C2249   1.291       .  A
O2229      C2250   1.289       .  A
O2230      C2245   1.297       .  A
O2231      C2248   1.297       .  A
O2232      C2247   1.296       .  A
O2233     Zr2236   2.464   1_545  S
O2233      C2246   1.297       .  A
O2234     Zr2240   2.409   1_554  S
O2234      C2243   1.288       .  A
O2235     Zr2240   2.406       .  S
O2235      C2244   1.288       .  A
Zr2240     O2241   2.325       .  S
Zr2240     O2254   2.331   1_556  S
C2243      C2410   1.484       .  S
C2244      C2550   1.485       .  S
C2245      C2341   1.482       .  S
C2246      C2361   1.495       .  S
C2247      C2510   1.495       .  S
C2248      C2530   1.476       .  S
C2249      C2490   1.488       .  S
C2250      C2470   1.485       .  S
H2251      O2252   0.966       .  S
H2253      O2254   0.965       .  S
N2255      H2287   1.038       .  S
N2255      C2260   1.352   1_554  A
N2255      C2259   1.353   1_554  A
N2256      C2263   1.351       .  A
N2256      C2264   1.350       .  A
N2257      H2288   1.037       .  S
N2257      C2262   1.349       .  A
N2257      C2261   1.350       .  A
N2258      C2265   1.349       .  A
N2258      C2266   1.349       .  A
C2259      C2267   1.388       .  A
C2259      C2275   1.417   1_556  A
C2260      C2276   1.413       .  A
C2260      C2268   1.386       .  A
C2261      C2269   1.387       .  A
C2261      C2278   1.409       .  A
C2262      C2277   1.408       .  A
C2262      C2270   1.388       .  A
C2263      C2275   1.413       .  A
C2263      C2271   1.387       .  A
C2264      C2278   1.408       .  A
C2264      C2272   1.385       .  A
C2265      C2273   1.388       .  A
C2265      C2276   1.411   1_554  A
C2266      C2274   1.385       .  A
C2266      C2277   1.407       .  A
C2267      C2268   1.374       .  A
C2267      H2279   1.082       .  S
C2268      H2280   1.082       .  S
C2269      C2270   1.371       .  A
C2269      H2281   1.082       .  S
C2270      H2282   1.083   1_554  S
C2271      C2272   1.371       .  A
C2271      H2283   1.082       .  S
C2272      H2284   1.083       .  S
C2273      C2274   1.370       .  A
C2273      H2285   1.082       .  S
C2274      H2286   1.083       .  S
C2275      C2481   1.489       .  S
C2276      C2430   1.480       .  S
C2277      C2450   1.468       .  S
C2278      C2461   1.474       .  S
C2289      C2290   1.535       .  S
C2289      C2293   1.530       .  S
C2289      C2741   1.537       .  S
C2290      H2297   1.086       .  S
C2291      C2292   1.546   1_455  S
C2291      C2401   1.484       .  S
C2292      C2296   1.546       .  S
C2292      C2294   1.557   1_655  S
C2292      H2298   1.107       .  S
C2293      H2299   1.086       .  S
C2294      C2390   1.508       .  S
C2295      H2300   1.081       .  S
C2295      C2296   1.369   1_455  D
C2296      C2761   1.494       .  S
C2301      C2302   1.529       .  S
C2301      C2307   1.544       .  S
C2301      C2350   1.536       .  S
C2302      H2309   1.087       .  S
C2302      C2303   1.365       .  D
C2303      C2304   1.551       .  S
C2303      C2781   1.492       .  S
C2304      C2308   1.540       .  S
C2304      H2310   1.109       .  S
C2305      H2311   1.085       .  S
C2305      C2306   1.372       .  D
C2306      C2801   1.500       .  S
C2307      H2312   1.081       .  S
C2307      C2308   1.368       .  D
C2308      C2370   1.485       .  S
C2313      C2314   1.533       .  S
C2313      C2317   1.539       .  S
C2313      C2610   1.539       .  S
C2314      H2321   1.085       .  S
C2315      C2316   1.549   1_455  S
C2315      C2570   1.502       .  S
C2316      C2320   1.541       .  S
C2316      C2318   1.540   1_655  S
C2316      H2322   1.109       .  S
C2317      H2323   1.082       .  S
C2318      C2541   1.479   1_455  S
C2319      H2324   1.086       .  S
C2319      C2320   1.369   1_455  D
C2320      C2581   1.484       .  S
C2325      C2331   1.542   1_545  S
C2325      C2329   1.533   1_545  S
C2325      C2521   1.536       .  S
C2326      H2333   1.086       .  S
C2326      C2327   1.370       .  D
C2327      C2621   1.488       .  S
C2328      C2332   1.545       .  S
C2328      C2330   1.544       .  S
C2328      H2334   1.110       .  S
C2329      H2335   1.087       .  S
C2329      C2330   1.363       .  D
C2330      C2641   1.484       .  S
C2331      H2336   1.080       .  S
C2331      C2332   1.368       .  D
C2332      C2501   1.494       .  S
C2337      C2342   1.393       .  A
C2337      H2347   1.083       .  S
C2338      C2343   1.487       .  S
C2338      C2339   1.410       .  A
C2339      C2340   1.407       .  A
C2339      F2344   1.358       .  S
C2340      C2341   1.406       .  A
C2340      H2345   1.083       .  S
C2342      F2346   1.357       .  S
C2343      C2348   1.406       .  A
C2343      C2352   1.401       .  A
C2348      C2349   1.398       .  A
C2348      F2353   1.358       .  S
C2349      C2350   1.410       .  A
C2350      C2351   1.416       .  A
C2351      C2352   1.402       .  A
C2351      F2355   1.358   1_565  S
C2352      H2356   1.083       .  S
C2357      C2358   1.404       .  A
C2357      C2362   1.406       .  A
C2357      H2367   1.083   1_545  S
C2358      C2363   1.483   1_545  S
C2359      C2360   1.393       .  A
C2359      F2364   1.357       .  S
C2360      H2365   1.083       .  S
C2361      C2362   1.413       .  A
C2362      F2366   1.357   1_545  S
C2363      C2368   1.405       .  A
C2368      C2369   1.395       .  A
C2368      F2373   1.358       .  S
C2369      C2370   1.403       .  A
C2369      H2374   1.083       .  S
C2371      C2372   1.402       .  A
C2371      F2375   1.356       .  S
C2372      H2376   1.083       .  S
C2377      C2382   1.401       .  A
C2377      H2387   1.083       .  S
C2378      C2383   1.485       .  S
C2378      C2379   1.401       .  A
C2379      C2380   1.395       .  A
C2379      F2384   1.358       .  S
C2380      C2381   1.411       .  A
C2380      H2385   1.083       .  S
C2382      F2386   1.357       .  S
C2383      C2392   1.403       .  A
C2388      C2389   1.398       .  A
C2388      F2393   1.358       .  S
C2389      H2394   1.083       .  S
C2390      C2391   1.414   1_455  A
C2391      C2392   1.404       .  A
C2391      F2395   1.352       .  S
C2392      H2396   1.083       .  S
C2397      C2398   1.401       .  A
C2397      C2402   1.394       .  A
C2397      H2407   1.084       .  S
C2398      C2403   1.478   1_455  S
C2399      C2400   1.406       .  A
C2399      F2404   1.357       .  S
C2400      H2405   1.083       .  S
C2401      C2402   1.408       .  A
C2402      F2406   1.357       .  S
C2403      C2408   1.401   1_655  A
C2408      C2409   1.390       .  A
C2408      F2413   1.358       .  S
C2409      C2410   1.409   1_455  A
C2409      H2414   1.083       .  S
C2411      C2412   1.409       .  A
C2411      F2415   1.358       .  S
C2412      H2416   1.083       .  S
C2417      C2418   1.399       .  A
C2417      C2422   1.394       .  A
C2417      H2427   1.083       .  S
C2418      C2423   1.468       .  S
C2418      C2419   1.402       .  A
C2419      C2420   1.396       .  A
C2419      F2424   1.358   1_556  S
C2420      C2421   1.410       .  A
C2420      H2425   1.083   1_556  S
C2421      C2422   1.411       .  A
C2422      F2426   1.357       .  S
C2423      C2428   1.404   1_556  A
C2423      C2432   1.402       .  A
C2428      C2429   1.394       .  A
C2428      F2433   1.358       .  S
C2429      C2430   1.402   1_554  A
C2429      H2434   1.083       .  S
C2430      C2431   1.405       .  A
C2431      C2432   1.396       .  A
C2431      F2435   1.357       .  S
C2432      H2436   1.083       .  S
C2437      C2438   1.399   1_556  A
C2437      C2442   1.386       .  A
C2437      H2447   1.084       .  S
C2438      C2443   1.465       .  S
C2438      C2439   1.405       .  A
C2439      C2440   1.395       .  A
C2439      F2444   1.358       .  S
C2440      C2441   1.404       .  A
C2440      H2445   1.083       .  S
C2441      C2442   1.406   1_554  A
C2442      F2446   1.358       .  S
C2443      C2448   1.404       .  A
C2443      C2452   1.404   1_554  A
C2448      C2449   1.392       .  A
C2448      F2453   1.357       .  S
C2449      C2450   1.400       .  A
C2449      H2454   1.083       .  S
C2450      C2451   1.400   1_554  A
C2451      C2452   1.390       .  A
C2451      F2455   1.358       .  S
C2452      H2456   1.084       .  S
C2457      C2458   1.403       .  A
C2457      C2462   1.398       .  A
C2457      H2467   1.083       .  S
C2458      C2463   1.466       .  S
C2458      C2459   1.402   1_554  A
C2459      C2460   1.391       .  A
C2459      F2464   1.357       .  S
C2460      C2461   1.400   1_556  A
C2460      H2465   1.084       .  S
C2461      C2462   1.404       .  A
C2462      F2466   1.357       .  S
C2463      C2468   1.401       .  A
C2463      C2472   1.397       .  A
C2468      C2469   1.397       .  A
C2468      F2473   1.358       .  S
C2469      C2470   1.409       .  A
C2469      H2474   1.083       .  S
C2470      C2471   1.414       .  A
C2471      C2472   1.393       .  A
C2471      F2475   1.357       .  S
C2472      H2476   1.084       .  S
C2477      C2478   1.406       .  A
C2477      C2482   1.398       .  A
C2477      H2487   1.083       .  S
C2478      C2483   1.483       .  S
C2478      C2479   1.406   1_556  A
C2479      C2480   1.396       .  A
C2479      F2484   1.357       .  S
C2480      C2481   1.403       .  A
C2480      H2485   1.083       .  S
C2481      C2482   1.407   1_554  A
C2482      F2486   1.358       .  S
C2483      C2488   1.407       .  A
C2483      C2492   1.402   1_556  A
C2488      C2489   1.400       .  A
C2488      F2493   1.358       .  S
C2489      C2490   1.408       .  A
C2489      H2494   1.083       .  S
C2490      C2491   1.412   1_556  A
C2491      C2492   1.395       .  A
C2491      F2495   1.357       .  S
C2492      H2496   1.083       .  S
C2497      C2502   1.405       .  A
C2497      H2507   1.083       .  S
C2498      C2503   1.485       .  S
C2498      C2499   1.403       .  A
C2499      C2500   1.394       .  A
C2499      F2504   1.358       .  S
C2500      C2501   1.407       .  A
C2500      H2505   1.083       .  S
C2502      F2506   1.357       .  S
C2503      C2512   1.402   1_565  A
C2508      C2509   1.407       .  A
C2508      F2513   1.358       .  S
C2509      C2510   1.412       .  A
C2509      H2514   1.083       .  S
C2511      C2512   1.397       .  A
C2511      F2515   1.358       .  S
C2512      H2516   1.084       .  S
C2517      C2522   1.400       .  A
C2517      H2527   1.083       .  S
C2518      C2523   1.490       .  S
C2518      C2519   1.406       .  A
C2519      C2520   1.398       .  A
C2519      F2524   1.358       .  S
C2520      H2525   1.075       .  S
C2521      C2522   1.413       .  A
C2522      F2526   1.357       .  S
C2523      C2532   1.405       .  A
C2528      C2529   1.401       .  A
C2528      F2533   1.357       .  S
C2529      H2534   1.083       .  S
C2530      C2531   1.407       .  A
C2531      C2532   1.398       .  A
C2531      F2535   1.359       .  S
C2532      H2536   1.083       .  S
C2537      C2538   1.402       .  A
C2537      C2542   1.401       .  A
C2537      H2547   1.083       .  S
C2538      C2543   1.469       .  S
C2539      C2540   1.395       .  A
C2539      F2544   1.357       .  S
C2540      H2545   1.083       .  S
C2541      C2542   1.405       .  A
C2542      F2546   1.356       .  S
C2543      C2548   1.398       .  A
C2548      C2549   1.393       .  A
C2548      F2553   1.358       .  S
C2549      C2550   1.412       .  A
C2549      H2554   1.083       .  S
C2551      C2552   1.406       .  A
C2551      F2555   1.357       .  S
C2552      H2556   1.083       .  S
C2557      C2558   1.406       .  A
C2557      C2562   1.406       .  A
C2557      H2567   1.083   1_655  S
C2558      C2563   1.485       .  S
C2559      C2560   1.400       .  A
C2559      F2564   1.358       .  S
C2560      H2565   1.084       .  S
C2561      C2562   1.410       .  A
C2562      F2566   1.357   1_655  S
C2563      C2568   1.407       .  A
C2568      C2569   1.406       .  A
C2568      F2573   1.357       .  S
C2569      C2570   1.410   1_655  A
C2569      H2574   1.082       .  S
C2571      C2572   1.397       .  A
C2571      F2575   1.357       .  S
C2572      H2576   1.083       .  S
C2577      C2578   1.407       .  A
C2577      C2582   1.406       .  A
C2577      H2587   1.083       .  S
C2578      C2583   1.494       .  S
C2578      C2579   1.410       .  A
C2579      C2580   1.401       .  A
C2579      F2584   1.358       .  S
C2580      C2581   1.402       .  A
C2580      H2585   1.083       .  S
C2581      C2582   1.405       .  A
C2582      F2586   1.357       .  S
C2583      C2588   1.410       .  A
C2583      C2592   1.402       .  A
C2588      C2589   1.410       .  A
C2588      F2593   1.357       .  S
C2589      C2590   1.408       .  A
C2589      H2594   1.083       .  S
C2590      C2591   1.414       .  A
C2591      C2592   1.397       .  A
C2591      F2595   1.358       .  S
C2592      H2596   1.083       .  S
C2597      C2598   1.409       .  A
C2597      C2602   1.407       .  A
C2597      H2607   1.083       .  S
C2598      C2603   1.489       .  S
C2598      C2599   1.402       .  A
C2599      C2600   1.394       .  A
C2599      F2604   1.358       .  S
C2600      C2601   1.413       .  A
C2600      H2605   1.083       .  S
C2601      C2602   1.410       .  A
C2602      F2606   1.357       .  S
C2603      C2608   1.402       .  A
C2603      C2612   1.406       .  A
C2608      C2609   1.398       .  A
C2608      F2613   1.358       .  S
C2609      C2610   1.415       .  A
C2609      H2614   1.076       .  S
C2610      C2611   1.413       .  A
C2611      C2612   1.402       .  A
C2611      F2615   1.358       .  S
C2612      H2616   1.083       .  S
C2617      C2618   1.412       .  A
C2617      C2622   1.405       .  A
C2617      H2627   1.082       .  S
C2618      C2623   1.505       .  S
C2618      C2619   1.412       .  A
C2619      C2620   1.402       .  A
C2619      F2624   1.357       .  S
C2620      C2621   1.404       .  A
C2620      H2625   1.083       .  S
C2621      C2622   1.403       .  A
C2622      F2626   1.357       .  S
C2623      C2628   1.411       .  A
C2623      C2632   1.411       .  A
C2628      C2629   1.404       .  A
C2628      F2633   1.357       .  S
C2629      C2630   1.408       .  A
C2629      H2634   1.084       .  S
C2630      C2631   1.406       .  A
C2631      C2632   1.405       .  A
C2631      F2635   1.357       .  S
C2632      H2636   1.082       .  S
C2637      C2638   1.406       .  A
C2637      C2642   1.403       .  A
C2637      H2647   1.083       .  S
C2638      C2643   1.490       .  S
C2638      C2639   1.409       .  A
C2639      C2640   1.399       .  A
C2639      F2644   1.358       .  S
C2640      C2641   1.404       .  A
C2640      H2645   1.084       .  S
C2641      C2642   1.405       .  A
C2642      F2646   1.357       .  S
C2643      C2648   1.402       .  A
C2643      C2652   1.409       .  A
C2648      C2649   1.394       .  A
C2648      F2653   1.358       .  S
C2649      C2650   1.412       .  A
C2649      H2654   1.082       .  S
C2650      C2651   1.411       .  A
C2651      C2652   1.408       .  A
C2651      F2655   1.357       .  S
C2652      H2656   1.083       .  S
C2657      C2658   1.401       .  A
C2657      C2662   1.393       .  A
C2657      H2667   1.083       .  S
C2658      C2663   1.478       .  S
C2658      C2659   1.407       .  A
C2659      C2660   1.395       .  A
C2659      F2664   1.358       .  S
C2660      C2661   1.407       .  A
C2660      H2665   1.083       .  S
C2661      C2662   1.411       .  A
C2662      F2666   1.357       .  S
C2663      C2668   1.409       .  A
C2663      C2672   1.404       .  A
C2668      C2669   1.395       .  A
C2668      F2673   1.358       .  S
C2669      C2670   1.402       .  A
C2669      H2674   1.083       .  S
C2670      C2671   1.404       .  A
C2671      C2672   1.394       .  A
C2671      F2675   1.357       .  S
C2672      H2676   1.083       .  S
C2677      C2678   1.397       .  A
C2677      C2682   1.391       .  A
C2677      H2687   1.084       .  S
C2678      C2683   1.467       .  S
C2678      C2679   1.403       .  A
C2679      C2680   1.397       .  A
C2679      F2684   1.358       .  S
C2680      C2681   1.409       .  A
C2680      H2685   1.083       .  S
C2681      C2682   1.413       .  A
C2682      F2686   1.357       .  S
C2683      C2688   1.404       .  A
C2683      C2692   1.402       .  A
C2688      C2689   1.394       .  A
C2688      F2693   1.357       .  S
C2689      C2690   1.401       .  A
C2689      H2694   1.083       .  S
C2690      C2691   1.403       .  A
C2691      C2692   1.393       .  A
C2691      F2695   1.358       .  S
C2692      H2696   1.083       .  S
C2697      C2698   1.404       .  A
C2697      C2702   1.394       .  A
C2697      H2707   1.083       .  S
C2698      C2703   1.476       .  S
C2698      C2699   1.408       .  A
C2699      C2700   1.396       .  A
C2699      F2704   1.357       .  S
C2700      C2701   1.400       .  A
C2700      H2705   1.083       .  S
C2701      C2702   1.401       .  A
C2702      F2706   1.357       .  S
C2703      C2708   1.407       .  A
C2703      C2712   1.402       .  A
C2708      C2709   1.397       .  A
C2708      F2713   1.358       .  S
C2709      C2710   1.403       .  A
C2709      H2714   1.083       .  S
C2710      C2711   1.408       .  A
C2711      C2712   1.394       .  A
C2711      F2715   1.357       .  S
C2712      H2716   1.083       .  S
C2717      C2718   1.403       .  A
C2717      C2722   1.399       .  A
C2717      H2727   1.083       .  S
C2718      C2723   1.477       .  S
C2718      C2719   1.403       .  A
C2719      C2720   1.393       .  A
C2719      F2724   1.357       .  S
C2720      C2721   1.407       .  A
C2720      H2725   1.083       .  S
C2721      C2722   1.413       .  A
C2722      F2726   1.358       .  S
C2723      C2728   1.407       .  A
C2723      C2732   1.404       .  A
C2728      C2729   1.396       .  A
C2728      F2733   1.357       .  S
C2729      C2730   1.401       .  A
C2729      H2734   1.083       .  S
C2730      C2731   1.405       .  A
C2731      C2732   1.397       .  A
C2731      F2735   1.358       .  S
C2732      H2736   1.083       .  S
C2737      C2738   1.402       .  A
C2737      C2742   1.402       .  A
C2737      H2747   1.083       .  S
C2738      C2743   1.487       .  S
C2738      C2739   1.405       .  A
C2739      C2740   1.398       .  A
C2739      F2744   1.358       .  S
C2740      C2741   1.411       .  A
C2740      H2745   1.076       .  S
C2741      C2742   1.416       .  A
C2742      F2746   1.358       .  S
C2743      C2748   1.406       .  A
C2743      C2752   1.407       .  A
C2748      C2749   1.397       .  A
C2748      F2753   1.358       .  S
C2749      C2750   1.405       .  A
C2749      H2754   1.084       .  S
C2750      C2751   1.407       .  A
C2751      C2752   1.406       .  A
C2751      F2755   1.357       .  S
C2752      H2756   1.083       .  S
C2757      C2758   1.403       .  A
C2757      C2762   1.398       .  A
C2757      H2767   1.083       .  S
C2758      C2763   1.488       .  S
C2758      C2759   1.407       .  A
C2759      C2760   1.407       .  A
C2759      F2764   1.357       .  S
C2760      C2761   1.406       .  A
C2760      H2765   1.078       .  S
C2761      C2762   1.408       .  A
C2762      F2766   1.357       .  S
C2763      C2768   1.407       .  A
C2763      C2772   1.401       .  A
C2768      C2769   1.408       .  A
C2768      F2773   1.357       .  S
C2769      C2770   1.411       .  A
C2769      H2774   1.083       .  S
C2770      C2771   1.414       .  A
C2771      C2772   1.396       .  A
C2771      F2775   1.358       .  S
C2772      H2776   1.084       .  S
C2777      C2778   1.408       .  A
C2777      C2782   1.410       .  A
C2777      H2787   1.083       .  S
C2778      C2783   1.494       .  S
C2778      C2779   1.407       .  A
C2779      C2780   1.396       .  A
C2779      F2784   1.358       .  S
C2780      C2781   1.404       .  A
C2780      H2785   1.083       .  S
C2781      C2782   1.409       .  A
C2782      F2786   1.357       .  S
C2783      C2788   1.411       .  A
C2783      C2792   1.400       .  A
C2788      C2789   1.413       .  A
C2788      F2793   1.357       .  S
C2789      C2790   1.411       .  A
C2789      H2794   1.083       .  S
C2790      C2791   1.415       .  A
C2791      C2792   1.394       .  A
C2791      F2795   1.358       .  S
C2792      H2796   1.084       .  S
C2797      C2798   1.408       .  A
C2797      C2802   1.404       .  A
C2797      H2807   1.083       .  S
C2798      C2803   1.496       .  S
C2798      C2799   1.406       .  A
C2799      C2800   1.401       .  A
C2799      F2804   1.357       .  S
C2800      C2801   1.410       .  A
C2800      H2805   1.082       .  S
C2801      C2802   1.409       .  A
C2802      F2806   1.356       .  S
C2803      C2808   1.406       .  A
C2803      C2812   1.409       .  A
C2808      C2809   1.398       .  A
C2808      F2813   1.358       .  S
C2809      C2810   1.409       .  A
C2809      H2814   1.083       .  S
C2810      C2811   1.410       .  A
C2811      C2812   1.408       .  A
C2811      F2815   1.357       .  S
C2812      H2816   1.083       .  S
