geometry optimzed in LAMMPS
_audit_creation_date              2020-12-01 
_audit_creation_method            'lammps2cif' 
_symmetry_space_group_name_H-M    'P1' 
_symmetry_Int_Tables_number       1 
_symmetry_cell_setting            triclinic 
loop_ 
_symmetry_equiv_pos_as_xyz 
  x,y,z 
_cell_length_a                    39.57819185 
_cell_length_b                    25.447965771548404 
_cell_length_c                    25.060871396662034 
_cell_angle_alpha                 91.54473318375587 
_cell_angle_beta                  90.19317476034841 
_cell_angle_gamma                 90.65357874292731 
loop_ 
_atom_site_label 
_atom_site_type_symbol 
_atom_site_fract_x 
_atom_site_fract_y 
_atom_site_fract_z 
_atom_site_charge 
O1          O  0.46353096  0.04991698  0.20203847    -0.74000
O2          O  0.53341559  0.04040601  0.30765854    -0.74000
O3          O  0.53210208  0.04786095  0.19899391    -0.74100
O4          O  0.46483835  0.04241168  0.30920226    -0.74200
O5          O  0.46192267  0.95495089  0.30027678    -0.74100
O6          O  0.53139542  0.96038158  0.19460259    -0.74100
O7          O  0.53062777  0.95297120  0.30291038    -0.74000
O8          O  0.46329117  0.96249900  0.19389302    -0.74100
Ni9        Ni  0.49861396  0.04831902  0.25485463     1.25400
Ni10       Ni  0.49683946  0.95464527  0.24760086     1.25400
C11         C  0.45193595  0.00725483  0.18049252     0.88200
C12         C  0.54326465  0.99546998  0.32346652     0.88100
C13         C  0.54275792  0.00452284  0.17827986     0.88100
C14         C  0.45195183  0.99804283  0.32197873     0.88300
C15         C  0.35678143  0.00365669  0.00119731    -0.02100
C16         C  0.64175198  0.99592538  0.00172749    -0.02100
O17         O  0.53691468  0.44738796  0.21128596    -0.74000
O18         O  0.46263520  0.46941864  0.30636400    -0.74000
O19         O  0.46905975  0.44505332  0.20145700    -0.74100
O20         O  0.53048920  0.47214102  0.31738447    -0.74200
O21         O  0.53144510  0.55787991  0.30034935    -0.74100
O22         O  0.47007187  0.53079311  0.18441230    -0.74100
O23         O  0.46355548  0.55535616  0.29048585    -0.74000
O24         O  0.53798485  0.53330385  0.19531284    -0.74100
Ni25       Ni  0.49982305  0.45546288  0.25986483     1.25400
Ni26       Ni  0.50073052  0.54739445  0.24190550     1.25400
C27         C  0.54932915  0.48682613  0.18712908     0.88200
C28         C  0.45114952  0.51578134  0.31448058     0.88100
C29         C  0.45976072  0.48376484  0.17371282     0.88100
C30         C  0.54074550  0.51920405  0.32812882     0.88300
C31         C  0.36554456  0.50032550  0.99915361    -0.02100
C32         C  0.63487930  0.50099008  0.00220883    -0.02100
O33         O  0.96431531  0.43946229  0.03981478    -0.74000
O34         O  0.03393489  0.46004628  0.43646034    -0.74000
O35         O  0.03314823  0.44723016  0.04312480    -0.74100
O36         O  0.96556504  0.45236978  0.43366921    -0.74200
O37         O  0.96172157  0.53923834  0.44465660    -0.74100
O38         O  0.02875277  0.53394925  0.05459436    -0.74100
O39         O  0.03040692  0.54709267  0.44833317    -0.74000
O40         O  0.96026079  0.52653699  0.05076314    -0.74100
Ni41       Ni  0.99939366  0.44665225  0.48779304     1.25400
Ni42       Ni  0.99520440  0.53977302  0.50010940     1.25400
C43         C  0.95069552  0.47988027  0.06184138     0.88200
C44         C  0.04352826  0.50673524  0.42544128     0.88100
C45         C  0.04239258  0.49030894  0.06672803     0.88100
C46         C  0.95212912  0.49614153  0.42152789     0.88300
C47         C  0.13811067  0.50213618  0.24679598    -0.02100
C48         C  0.85714319  0.48918594  0.24136472    -0.02100
O49         O  0.97433769  0.03757622  0.43553265    -0.74000
O50         O  0.03504509  0.05436817  0.05444255    -0.74000
O51         O  0.04160918  0.02913087  0.44957010    -0.74100
O52         O  0.96755967  0.06357303  0.04179625    -0.74200
O53         O  0.96088559  0.97817880  0.05771736    -0.74100
O54         O  0.03452679  0.94366899  0.46483165    -0.74100
O55         O  0.02822976  0.96910602  0.07105127    -0.74000
O56         O  0.96710153  0.95260596  0.45305641    -0.74100
Ni57       Ni  0.00479168  0.04924256  0.99467223     1.25400
Ni58       Ni  0.99747946  0.95789039  0.01240422     1.25400
C59         C  0.96115111  0.99229954  0.42443063     0.88200
C60         C  0.04137277  0.01429777  0.08238081     0.88100
C61         C  0.04983489  0.98107244  0.44130150     0.88100
C62         C  0.95225736  0.02618559  0.06529664     0.88300
C63         C  0.13539538  0.99555328  0.25863198    -0.02100
C64         C  0.86816158  0.00351653  0.24585394    -0.02100
O65         O  0.79608884  0.20104892  0.37947431    -0.74000
O66         O  0.73998937  0.30482536  0.44767776    -0.74000
O67         O  0.74659651  0.19880156  0.45414318    -0.74100
O68         O  0.78916561  0.30703122  0.37349057    -0.74200
O69         O  0.75162323  0.29445550  0.30755627    -0.74100
O70         O  0.70902019  0.18698186  0.38815347    -0.74100
O71         O  0.70225807  0.29304172  0.38223359    -0.74000
O72         O  0.75828636  0.18896989  0.31420565    -0.74100
Ni73       Ni  0.76935493  0.25331516  0.41598617     1.25400
Ni74       Ni  0.72885994  0.24048243  0.34587207     1.25400
C75         C  0.78653737  0.17756965  0.33590979     0.88200
C76         C  0.71199242  0.31680866  0.42558294     0.88100
C77         C  0.72109106  0.17439224  0.43347736     0.88100
C78         C  0.77725514  0.31878333  0.32775423     0.88300
O79         O  0.71426437  0.80480635  0.11535564    -0.74000
O80         O  0.76139695  0.69505758  0.18510406    -0.74000
O81         O  0.76425545  0.80213051  0.18868030    -0.74100
O82         O  0.71091111  0.69874675  0.11234479    -0.74200
O83         O  0.74939362  0.69375820  0.04767625    -0.74100
O84         O  0.80158776  0.80172991  0.12226659    -0.74100
O85         O  0.80030155  0.69507770  0.12091597    -0.74000
O86         O  0.75074635  0.80095270  0.04771001    -0.74100
Ni87       Ni  0.73642077  0.75021017  0.15266412     1.25400
Ni88       Ni  0.77690058  0.74787560  0.08223916     1.25400
C89         C  0.72456838  0.82077576  0.07009998     0.88200
C90         C  0.78857953  0.67683714  0.16435951     0.88100
C91         C  0.79149921  0.81959709  0.16788592     0.88100
C92         C  0.72127175  0.67881656  0.06796921     0.88300
O93         O  0.28947725  0.30713896  0.38515251    -0.74000
O94         O  0.23923102  0.19838587  0.31101773    -0.74000
O95         O  0.23851454  0.30540184  0.31242498    -0.74100
O96         O  0.29034015  0.20169502  0.38372253    -0.74200
O97         O  0.25246371  0.20124293  0.44948406    -0.74100
O98         O  0.20034019  0.30508309  0.37772612    -0.74100
O99         O  0.20143441  0.19909290  0.37682534    -0.74000
O100        O  0.25159599  0.30843096  0.45090971    -0.74100
Ni101      Ni  0.26564570  0.25321456  0.34567773     1.25400
Ni102      Ni  0.22513374  0.25348760  0.41617108     1.25400
C103        C  0.27914093  0.32521320  0.43032392     0.88200
C104        C  0.21195305  0.18082734  0.33179774     0.88100
C105        C  0.21099555  0.32234355  0.33317933     0.88100
C106        C  0.27988820  0.18434901  0.42826529     0.88300
O107        O  0.21034086  0.69229328  0.12966114    -0.74000
O108        O  0.25735517  0.80086863  0.05737475    -0.74000
O109        O  0.26160374  0.69502671  0.05895377    -0.74100
O110        O  0.20638526  0.79859768  0.12949069    -0.74200
O111        O  0.24305926  0.80532816  0.19701489    -0.74100
O112        O  0.29787559  0.70207006  0.12693299    -0.74100
O113        O  0.29378392  0.80827820  0.12548541    -0.74000
O114        O  0.24643881  0.69909577  0.19823095    -0.74100
Ni115      Ni  0.23255199  0.74651530  0.09155159     1.25400
Ni116      Ni  0.27166920  0.75385502  0.16425808     1.25400
C117        C  0.22065459  0.67752867  0.17523672     0.88200
C118        C  0.28310295  0.82270178  0.07985156     0.88100
C119        C  0.28905855  0.68137375  0.08173446     0.88100
C120        C  0.21561051  0.81925433  0.17468086     0.88300
C121        C  0.81343315  0.94472635  0.24751392    -0.20900
C122        C  0.84806233  0.95113728  0.23573859    -0.08900
C123        C  0.86474494  0.90740105  0.21170827     0.29900
C124        C  0.84631784  0.86441053  0.19069786    -0.20900
C125        C  0.81117633  0.86177809  0.19630203    -0.09000
C126        C  0.79512760  0.90083455  0.22763369     0.29900
F127        F  0.76134827  0.89828211  0.23650833    -0.19500
H128        H  0.79997031  0.97407868  0.27059447     0.18300
H129        H  0.85950500  0.83371648  0.16876393     0.18300
F130        F  0.89861902  0.90867899  0.20341216    -0.19500
C131        C  0.79803114  0.10899493  0.26380688    -0.20900
C132        C  0.80812699  0.13606701  0.31103665    -0.08900
C133        C  0.83904137  0.12269400  0.33436289     0.29900
C134        C  0.85814778  0.08170266  0.31284003    -0.20900
C135        C  0.84685277  0.05058403  0.26828236    -0.09000
C136        C  0.81741475  0.06781830  0.24198368     0.29900
F137        F  0.80695852  0.04442601  0.19544853    -0.19500
H138        H  0.77494572  0.11954677  0.24361259     0.18300
H139        H  0.88233745  0.07553764  0.33157455     0.18300
F140        F  0.85124827  0.14924892  0.37815858    -0.19500
C141        C  0.16205063  0.86897780  0.18021820    -0.20900
C142        C  0.19433222  0.86018891  0.20064049    -0.08900
C143        C  0.20545296  0.89090258  0.24514535     0.29900
C144        C  0.18549858  0.93205868  0.26543991    -0.20900
C145        C  0.15525726  0.94606786  0.23969846    -0.09000
C146        C  0.14236431  0.90993052  0.20013197     0.29900
F147        F  0.11027199  0.91225409  0.18123223    -0.19500
H148        H  0.15172989  0.84383951  0.14848272     0.18300
H149        H  0.19472356  0.95511219  0.29949801     0.18300
F150        F  0.23593888  0.88247191  0.26815607    -0.19500
C151        C  0.13960061  0.09077434  0.29085614    -0.20900
C152        C  0.15650248  0.04713725  0.26756305    -0.08900
C153        C  0.19108973  0.05450508  0.25456577     0.29900
C154        C  0.20879094  0.09928981  0.27365632    -0.20900
C155        C  0.19245193  0.13818368  0.30440877    -0.09000
C156        C  0.15733368  0.13473457  0.31061904     0.29900
F157        F  0.14016636  0.17321750  0.33709326    -0.19500
H158        H  0.11263787  0.08870504  0.29807551     0.18300
H159        H  0.23562284  0.10270751  0.26577390     0.18300
F160        F  0.20790812  0.02027754  0.22229342    -0.19500
C161        C  0.07466667  0.01552941  0.22332625    -0.20900
C162        C  0.10982612  0.01109591  0.21458852    -0.08900
C163        C  0.12174217  0.01982724  0.16211455     0.29900
C164        C  0.09918682  0.02350694  0.11945884    -0.20900
C165        C  0.06443615  0.01971160  0.12807450    -0.09000
C166        C  0.05216911  0.01780108  0.18032167     0.29900
F167        F  0.01839703  0.01701389  0.18961957    -0.19500
H168        H  0.06408985  0.01584247  0.26293256     0.18300
H169        H  0.10892075  0.02633396  0.07927217     0.18300
F170        F  0.15528249  0.01986092  0.15116773    -0.19500
C171        C  0.10715709  0.99762466  0.40652453    -0.20900
C172        C  0.07659267  0.96989902  0.40225854    -0.08900
C173        C  0.07004495  0.93889407  0.35616690     0.29900
C174        C  0.09144597  0.94258436  0.31190482    -0.20900
C175        C  0.11850203  0.97940553  0.31212954    -0.09000
C176        C  0.12883084  0.00024294  0.36291256     0.29900
F177        F  0.15928959  0.02428625  0.37080408    -0.19500
H178        H  0.11364949  0.01902740  0.44317739     0.18300
H179        H  0.08450757  0.92121660  0.27554872     0.18300
F180        F  0.04121876  0.90966289  0.35179400    -0.19500
C181        C  0.95207147  0.99318986  0.32650463    -0.20900
C182        C  0.93902076  0.98583815  0.37757693    -0.08900
C183        C  0.90488940  0.97244930  0.38326196     0.29900
C184        C  0.88324527  0.97373323  0.33916973    -0.20900
C185        C  0.89515255  0.98867220  0.28839072    -0.05800
C186        C  0.93074404  0.99191190  0.28183743     0.29900
F187        F  0.94557295  0.99165994  0.23323239    -0.19500
H188        H  0.97896599  0.99932714  0.32117270     0.18300
H189        H  0.85648508  0.96745378  0.34558980     0.18300
F190        F  0.89204980  0.96174512  0.43199637    -0.19500
C191        C  0.89523654  0.00627189  0.09813268    -0.20900
C192        C  0.92454674  0.03698601  0.10273899    -0.08900
C193        C  0.92904885  0.06988966  0.14818536     0.29900
C194        C  0.90762427  0.06403802  0.19231413    -0.20900
C195        C  0.88317822  0.02304109  0.19232270    -0.09000
C196        C  0.87373263  0.00126074  0.14149750     0.29900
F197        F  0.84449567  0.97385628  0.13322103    -0.19500
H198        H  0.88991771  0.98379996  0.06163657     0.18300
H199        H  0.91325051  0.08629182  0.22878035     0.18300
F200        F  0.95630140  0.10259200  0.15251137    -0.19500
C201        C  0.81153858  0.45303634  0.30122781    -0.20900
C202        C  0.83091100  0.44511145  0.25421201    -0.08900
C203        C  0.82851908  0.39489823  0.22811936     0.29900
C204        C  0.80927094  0.35441380  0.25059691    -0.20900
C205        C  0.79273836  0.36256826  0.29942400    -0.09000
C206        C  0.79314097  0.41250967  0.32369921     0.29900
F207        F  0.77656569  0.42168559  0.37033844    -0.19500
H208        H  0.81239407  0.49064164  0.32255147     0.18300
H209        H  0.80903013  0.31567930  0.23156683     0.18300
F210        F  0.84676132  0.38248174  0.18406617    -0.19500
C211        C  0.80297920  0.54403604  0.22318334    -0.20900
C212        C  0.83871498  0.54140934  0.22773364    -0.08900
C213        C  0.85738768  0.58663958  0.21273356     0.29900
C214        C  0.84109249  0.63087958  0.19302026    -0.20900
C215        C  0.80576713  0.63240872  0.18939434    -0.09000
C216        C  0.78686076  0.58907317  0.20595030     0.29900
F217        F  0.75262529  0.58869438  0.20187310    -0.19500
H218        H  0.78667394  0.51083079  0.23055698     0.18300
H219        H  0.85616746  0.66397127  0.18016255     0.18300
F220        F  0.89164907  0.58738587  0.21490629    -0.19500
C221        C  0.16369499  0.59681998  0.26318303    -0.20900
C222        C  0.16264883  0.54823697  0.23430347    -0.08900
C223        C  0.18325296  0.54320178  0.18815491     0.29900
C224        C  0.20284135  0.58504373  0.17097018    -0.20900
C225        C  0.20318214  0.63296448  0.19923637    -0.09000
C226        C  0.18413104  0.63858196  0.24609438     0.29900
F227        F  0.18367644  0.68535557  0.27340537    -0.19500
H228        H  0.14775426  0.60391183  0.29734622     0.18300
H229        H  0.21741882  0.58029624  0.13467137     0.18300
F230        F  0.18396870  0.49747406  0.15895952    -0.19500
C231        C  0.14105588  0.40549464  0.27512871    -0.20900
C232        C  0.15864910  0.45239271  0.26256977    -0.08900
C233        C  0.19416130  0.45360055  0.27385008     0.29900
C234        C  0.21053201  0.40993315  0.29357582    -0.20900
C235        C  0.19261034  0.36475291  0.30673444    -0.09000
C236        C  0.15762170  0.36262454  0.29747122     0.29900
F237        F  0.13944600  0.31921036  0.31015317    -0.19500
H238        H  0.11392737  0.40289054  0.26968557     0.18300
H239        H  0.23738918  0.41282730  0.30204384     0.18300
F240        F  0.21360168  0.49759508  0.27102739    -0.19500
C241        C  0.07603931  0.53866818  0.13570089    -0.20900
C242        C  0.06897807  0.49098507  0.10882970    -0.08900
C243        C  0.08723707  0.44609727  0.12317410     0.29900
C244        C  0.11124911  0.44915696  0.16490936    -0.20900
C245        C  0.11652508  0.49658306  0.19455708    -0.09000
C246        C  0.09896021  0.54167307  0.17753689     0.29900
F247        F  0.10178158  0.58855956  0.20439928    -0.19500
H248        H  0.06281216  0.57412363  0.12577379     0.18300
H249        H  0.12474595  0.41404287  0.17440116     0.18300
F250        F  0.08164603  0.39910351  0.09760541    -0.19500
C251        C  0.10217593  0.52228098  0.39052916    -0.20900
C252        C  0.06752257  0.51346664  0.38176379    -0.08900
C253        C  0.05552601  0.50533254  0.33003957     0.29900
C254        C  0.07771719  0.50410531  0.28747478    -0.20900
C255        C  0.11315866  0.51240530  0.29427780    -0.09000
C256        C  0.12488402  0.52142206  0.34736578     0.29900
F257        F  0.15842851  0.52661456  0.35789213    -0.19500
H258        H  0.11177449  0.52762746  0.43083786     0.18300
H259        H  0.06620490  0.49322909  0.24969257     0.18300
F260        F  0.02212364  0.49579722  0.32077451    -0.19500
C261        C  0.91804318  0.44867479  0.35244492    -0.20900
C262        C  0.92543165  0.49593432  0.37990362    -0.08900
C263        C  0.90735897  0.54127456  0.36663478     0.29900
C264        C  0.88399293  0.53954827  0.32424845    -0.20900
C265        C  0.87885274  0.49292498  0.29336086    -0.09000
C266        C  0.89517753  0.44678634  0.31049754     0.29900
F267        F  0.89158655  0.40026485  0.28317338    -0.19500
H268        H  0.93092640  0.41279698  0.36205674     0.18300
H269        H  0.87072425  0.57512689  0.31540927     0.18300
F270        F  0.91236942  0.58738618  0.39412678    -0.19500
C271        C  0.89130293  0.47208034  0.09631977    -0.20900
C272        C  0.92635102  0.47328786  0.10500079    -0.08900
C273        C  0.93887279  0.47506885  0.15679235     0.29900
C274        C  0.91699741  0.47791875  0.19968283    -0.20900
C275        C  0.88122003  0.47711519  0.19311611    -0.09000
C276        C  0.86886673  0.47381466  0.13983899     0.29900
F277        F  0.83515500  0.47483385  0.12983424    -0.19500
H278        H  0.88136315  0.47169588  0.05597653     0.18300
H279        H  0.92939268  0.48450216  0.23760620     0.18300
F280        F  0.97272645  0.47781422  0.16596840    -0.19500
C281        C  0.69347442  0.55076565  0.99899767    -0.20900
C282        C  0.65842571  0.55030669  0.01019843    -0.08900
C283        C  0.64431151  0.59811051  0.02974478     0.29900
C284        C  0.66495530  0.64018941  0.04634615    -0.20900
C285        C  0.70008853  0.63762061  0.04124556    -0.09000
C286        C  0.71412513  0.59371020  0.01481583     0.29900
F287        F  0.74797676  0.59088823  0.00702111    -0.19500
H288        H  0.70541649  0.51800674  0.97878281     0.18300
H289        H  0.65340842  0.67444050  0.06491047     0.18300
F290        F  0.61052005  0.60253810  0.03754990    -0.19500
C291        C  0.68155580  0.43222866  0.01302802    -0.20900
C292        C  0.65354191  0.44983764  0.48356138    -0.08900
C293        C  0.64215729  0.41640497  0.44043698     0.29900
C294        C  0.66100462  0.37327984  0.42316320    -0.20900
C295        C  0.69099464  0.35984938  0.44889426    -0.09000
C296        C  0.70058316  0.38888646  0.49530991     0.29900
F297        F  0.72863562  0.37630057  0.02332684    -0.19500
H298        H  0.68963320  0.45366476  0.04882651     0.18300
H299        H  0.65184068  0.35021986  0.38905477     0.18300
F300        F  0.61196415  0.42261991  0.41580491    -0.19500
C301        C  0.30652630  0.45216331  0.50080901    -0.20900
C302        C  0.34181397  0.45136982  0.49176704    -0.08900
C303        C  0.35585515  0.40289929  0.47409809     0.29900
C304        C  0.33511763  0.36144098  0.45637786    -0.20900
C305        C  0.29996241  0.36567176  0.45831217    -0.09000
C306        C  0.28572951  0.41008453  0.48337585     0.29900
F307        F  0.25169843  0.41437398  0.48782665    -0.19500
H308        H  0.29451720  0.48547794  0.01983455     0.18300
H309        H  0.34662368  0.32651827  0.43913110     0.18300
F310        F  0.38975772  0.39732916  0.46875506    -0.19500
C311        C  0.35864328  0.58234057  0.06195312    -0.20900
C312        C  0.34707131  0.55150210  0.01753194    -0.08900
C313        C  0.31963872  0.57158435  0.98827275     0.29900
C314        C  0.30103469  0.61426073  0.00860298    -0.20900
C315        C  0.31056322  0.64016050  0.05671944    -0.09000
C316        C  0.34066555  0.62521165  0.08158944     0.29900
F317        F  0.35290296  0.65153317  0.12550953    -0.19500
H318        H  0.38201105  0.57410087  0.08232699     0.18300
H319        H  0.27881456  0.62643274  0.98702080     0.18300
F320        F  0.30981168  0.54851155  0.44117804    -0.19500
C321        C  0.42902254  0.55728981  0.39801947    -0.20900
C322        C  0.42419587  0.52291701  0.35403711    -0.08900
C323        C  0.39582318  0.48969973  0.35240913     0.29900
C324        C  0.37469413  0.48678697  0.39662236    -0.20900
C325        C  0.38296099  0.51367833  0.44527307    -0.09000
C326        C  0.40836381  0.55338325  0.44305990     0.29900
F327        F  0.41564297  0.58468081  0.48634267    -0.19500
H328        H  0.45044866  0.58419891  0.39930048     0.18300
H329        H  0.35280872  0.46123495  0.39269708     0.18300
F330        F  0.38932486  0.45842026  0.30873389    -0.19500
C331        C  0.40204987  0.47051993  0.13757462    -0.20900
C332        C  0.43674481  0.47481271  0.12862412    -0.08900
C333        C  0.44888998  0.47656047  0.07636084     0.29900
C334        C  0.42630802  0.47984141  0.03370457    -0.20900
C335        C  0.39115802  0.48393919  0.04280537    -0.09000
C336        C  0.37936166  0.47391539  0.09507091     0.29900
F337        F  0.34579203  0.47333272  0.10602800    -0.19500
H338        H  0.39245922  0.46788234  0.17788065     0.18300
H339        H  0.43685992  0.48081402  0.99408891     0.18300
F340        F  0.48264657  0.47712286  0.06683537    -0.19500
C341        C  0.59847439  0.53245647  0.36423753    -0.20900
C342        C  0.56376702  0.52823115  0.37322742    -0.08900
C343        C  0.55166437  0.52643114  0.42551347     0.29900
C344        C  0.57429407  0.52291181  0.46808673    -0.20900
C345        C  0.60940364  0.51809758  0.45881191    -0.09000
C346        C  0.62120890  0.52838647  0.40663556     0.29900
F347        F  0.65474937  0.52847710  0.39554928    -0.19500
H348        H  0.60803002  0.53524181  0.32394238     0.18300
H349        H  0.56379368  0.52214312  0.50771680     0.18300
F350        F  0.51791486  0.52592755  0.43515213    -0.19500
C351        C  0.57042528  0.44557556  0.10280824    -0.20900
C352        C  0.57604066  0.47912536  0.14721333    -0.08900
C353        C  0.60530042  0.51037554  0.14936550     0.29900
C354        C  0.62654146  0.51250600  0.10514896    -0.20900
C355        C  0.61746939  0.48711587  0.05602890    -0.09000
C356        C  0.59124166  0.44869729  0.05786598     0.29900
F357        F  0.58321224  0.41827673  0.01432237    -0.19500
H358        H  0.54837515  0.41993453  0.10120637     0.18300
H359        H  0.64910068  0.53657746  0.10927291     0.18300
F360        F  0.61264967  0.54039672  0.19358865    -0.19500
C361        C  0.67051235  0.08761694  0.52536749    -0.20900
C362        C  0.66746451  0.04156383  0.49279144    -0.08900
C363        C  0.68835335  0.03776214  0.44685163     0.29900
C364        C  0.70691230  0.08073764  0.43002588    -0.20900
C365        C  0.70652934  0.12816460  0.45904572    -0.09000
C366        C  0.68967234  0.13094356  0.50825964     0.29900
F367        F  0.69004149  0.17630392  0.53797774    -0.19500
H368        H  0.65745454  0.09110917  0.56303058     0.18300
H369        H  0.72048933  0.07766794  0.39257534     0.18300
F370        F  0.68804817  0.99389957  0.41477169    -0.19500
C371        C  0.66981298  0.90394122  0.98021273    -0.20900
C372        C  0.66603243  0.94956781  0.01304742    -0.08900
C373        C  0.68567438  0.95330061  0.06064247     0.29900
C374        C  0.70510449  0.91166187  0.07715513    -0.20900
C375        C  0.70697195  0.86539271  0.04644113    -0.09000
C376        C  0.69012241  0.86208482  0.99685451     0.29900
F377        F  0.69208828  0.81772494  0.96579714    -0.19500
H378        H  0.65707855  0.90018616  0.44206113     0.18300
H379        H  0.71828653  0.91519469  0.11510489     0.18300
F380        F  0.68425912  0.99646433  0.09356776    -0.19500
C381        C  0.33427549  0.90682475  0.98650746    -0.20900
C382        C  0.33357531  0.95605613  0.01403387    -0.08900
C383        C  0.31358950  0.96004708  0.06105095     0.29900
C384        C  0.29732526  0.91640516  0.08128986    -0.20900
C385        C  0.29929989  0.86775587  0.05494475    -0.09000
C386        C  0.31684149  0.86319165  0.00647300     0.29900
F387        F  0.31868977  0.81597667  0.98020491    -0.19500
H388        H  0.34979669  0.90064500  0.95161667     0.18300
H389        H  0.28331856  0.92058521  0.61831663     0.18300
F390        F  0.31110015  0.00635611  0.58901878    -0.19500
C391        C  0.28198410  0.09431136  0.46196985    -0.20900
C392        C  0.29867631  0.14181347  0.45351542    -0.08900
C393        C  0.33355911  0.14555939  0.46330843     0.29900
C394        C  0.35133726  0.10194465  0.98138970    -0.20900
C395        C  0.33504998  0.05295764  0.48912321    -0.09000
C396        C  0.29966147  0.05008911  0.47745582     0.29900
F397        F  0.28178169  0.00431430  0.47610007    -0.19500
H398        H  0.25529716  0.09028101  0.45261978     0.18300
H399        H  0.37833025  0.10601687  0.98755575     0.18300
F400        F  0.35057060  0.19112037  0.95465961    -0.19500
C401        C  0.42180020  0.96362062  0.10565667    -0.20900
C402        C  0.42582931  0.00841112  0.13839811    -0.08900
C403        C  0.40539413  0.05239015  0.12947347     0.29900
C404        C  0.38182278  0.05138060  0.08728559    -0.20900
C405        C  0.37915123  0.00708337  0.05235109    -0.09000
C406        C  0.39931124  0.96276398  0.06351786     0.29900
F407        F  0.39893859  0.91905975  0.03122961    -0.19500
H408        H  0.43712043  0.92918129  0.11123706     0.18300
H409        H  0.36622745  0.08539959  0.08204901     0.18300
F410        F  0.40804485  0.09612660  0.16145323    -0.19500
C411        C  0.41583119  0.01414801  0.45834908    -0.20900
C412        C  0.38144842  0.99751188  0.45274728    -0.08900
C413        C  0.37030250  0.98372386  0.40038577     0.29900
C414        C  0.39332401  0.98196059  0.35752904    -0.20900
C415        C  0.42734155  0.99670844  0.36554394    -0.09000
C416        C  0.43822828  0.01292111  0.41611414     0.29900
F417        F  0.47085047  0.02821868  0.42474841    -0.19500
H418        H  0.42608754  0.03037421  0.49528559     0.18300
H419        H  0.38440273  0.97081002  0.31786597     0.18300
F420        F  0.33714497  0.97346196  0.39027567    -0.19500
C421        C  0.57303030  0.94847925  0.39770797    -0.20900
C422        C  0.56940937  0.99316262  0.36625607    -0.08900
C423        C  0.58998834  0.03709605  0.37788564     0.29900
C424        C  0.61323476  0.03650843  0.41955787    -0.20900
C425        C  0.61813794  0.99165339  0.45128357    -0.09000
C426        C  0.59639970  0.94802044  0.44035591     0.29900
F427        F  0.59659676  0.90561611  0.47196092    -0.19500
H428        H  0.55680418  0.91443558  0.39059998     0.18300
H429        H  0.62641820  0.07327448  0.42766136     0.18300
F430        F  0.58746048  0.08163390  0.34952375    -0.19500
C431        C  0.60962975  0.95720231  0.08136716    -0.20900
C432        C  0.61685868  0.00156359  0.05001580    -0.08900
C433        C  0.59675063  0.04657508  0.05984877     0.29900
C434        C  0.57367489  0.04841977  0.10266463    -0.20900
C435        C  0.56835232  0.00449744  0.13476062    -0.09000
C436        C  0.58645680  0.95868592  0.12286007     0.29900
F437        F  0.58171030  0.91436998  0.15101881    -0.19500
H438        H  0.62120240  0.91955678  0.07342404     0.18300
H439        H  0.55906290  0.08367963  0.10949623     0.18300
F440        F  0.59851795  0.08835750  0.02745485    -0.19500
O441        O  0.46354995  0.04995792  0.70206167    -0.74000
O442        O  0.53343199  0.04041235  0.80768324    -0.74000
O443        O  0.53212072  0.04789017  0.69901549    -0.74100
O444        O  0.46485255  0.04242057  0.80922619    -0.74200
O445        O  0.46193652  0.95496160  0.80027623    -0.74100
O446        O  0.53140834  0.96041172  0.69460917    -0.74100
O447        O  0.53064096  0.95297815  0.80291751    -0.74000
O448        O  0.46330717  0.96254119  0.69389600    -0.74100
Ni449      Ni  0.49863136  0.04834080  0.75487965     1.25400
Ni450      Ni  0.49685347  0.95466845  0.74760466     1.25400
C451        C  0.45195608  0.00730199  0.68050157     0.88200
C452        C  0.54327905  0.99547225  0.82348316     0.88100
C453        C  0.54277113  0.00455309  0.67828909     0.88100
C454        C  0.45196444  0.99804736  0.82198785     0.88300
C455        C  0.35679041  0.00370164  0.50121499    -0.02100
C456        C  0.64174103  0.99592661  0.50169903    -0.02100
O457        O  0.53688760  0.44735488  0.71121620    -0.74000
O458        O  0.46263067  0.46938636  0.80634271    -0.74000
O459        O  0.46902890  0.44506276  0.70141724    -0.74100
O460        O  0.53048561  0.47206872  0.81733322    -0.74200
O461        O  0.53145319  0.55781502  0.80033467    -0.74100
O462        O  0.47005790  0.53080904  0.68440625    -0.74100
O463        O  0.46356435  0.55533059  0.79049943    -0.74000
O464        O  0.53797395  0.53327798  0.69528205    -0.74100
Ni465      Ni  0.49980582  0.45543039  0.75981710     1.25400
Ni466      Ni  0.50072894  0.54736929  0.74189680     1.25400
C467        C  0.54930843  0.48679737  0.68707349     0.88200
C468        C  0.45115781  0.51575271  0.81448895     0.88100
C469        C  0.45973591  0.48378959  0.67368866     0.88100
C470        C  0.54074820  0.51912493  0.82809863     0.88300
C471        C  0.36551844  0.50034833  0.49911069    -0.02100
C472        C  0.63489007  0.50099104  0.50218736    -0.02100
O473        O  0.96433396  0.43944173  0.53982238    -0.74000
O474        O  0.03390256  0.46006052  0.93643440    -0.74000
O475        O  0.03316952  0.44720117  0.54314649    -0.74100
O476        O  0.96553375  0.45237475  0.93366168    -0.74200
O477        O  0.96169205  0.53924503  0.94463356    -0.74100
O478        O  0.02877672  0.53392065  0.55461611    -0.74100
O479        O  0.03037937  0.54710767  0.94830582    -0.74000
O480        O  0.96028518  0.52651551  0.55078470    -0.74100
Ni481      Ni  0.99936822  0.44666985  0.98777752     1.25400
Ni482      Ni  0.99517798  0.53979148  0.00008502     1.25400
C483        C  0.95071508  0.47985858  0.56185400     0.88200
C484        C  0.04349705  0.50674809  0.92541236     0.88100
C485        C  0.04241566  0.49027956  0.56674811     0.88100
C486        C  0.95209629  0.49614371  0.92151589     0.88300
C487        C  0.13812052  0.50214711  0.74682125    -0.02100
C488        C  0.85712443  0.48917432  0.74133571    -0.02100
O489        O  0.97428542  0.03762077  0.93554715    -0.74000
O490        O  0.03508752  0.05436750  0.55443637    -0.74000
O491        O  0.04155811  0.02917038  0.94956689    -0.74100
O492        O  0.96760163  0.06356960  0.54176841    -0.74200
O493        O  0.96092550  0.97818319  0.55772469    -0.74100
O494        O  0.03447944  0.94370212  0.96479972    -0.74100
O495        O  0.02827025  0.96911199  0.57107436    -0.74000
O496        O  0.96705347  0.95264187  0.95303601    -0.74100
Ni497      Ni  0.00483921  0.04922021  0.49466016     1.25400
Ni498      Ni  0.99752388  0.95787604  0.51242651     1.25400
C499        C  0.96110207  0.99234615  0.92442536     0.88200
C500        C  0.04141281  0.01430685  0.58239021     0.88100
C501        C  0.04978678  0.98111507  0.94128391     0.88100
C502        C  0.95229448  0.02619237  0.56527784     0.88300
C503        C  0.13540836  0.99556872  0.75867184    -0.02100
C504        C  0.86815529  0.00358565  0.74579208    -0.02100
O505        O  0.79608595  0.20106790  0.87948860    -0.74000
O506        O  0.73999839  0.30484344  0.94772252    -0.74000
O507        O  0.74660769  0.19881913  0.95418758    -0.74100
O508        O  0.78916014  0.30704873  0.87350549    -0.74200
O509        O  0.75160412  0.29446659  0.80759182    -0.74100
O510        O  0.70901821  0.18699773  0.88821707    -0.74100
O511        O  0.70225534  0.29305223  0.88229620    -0.74000
O512        O  0.75826937  0.18898563  0.81424079    -0.74100
Ni513      Ni  0.76935852  0.25333319  0.91601581     1.25400
Ni514      Ni  0.72884943  0.24049563  0.84592283     1.25400
C515        C  0.78652747  0.17759291  0.83592519     0.88200
C516        C  0.71199595  0.31682017  0.92564093     0.88100
C517        C  0.72109714  0.17441022  0.93353615     0.88100
C518        C  0.77724132  0.31879455  0.82777212     0.88300
O519        O  0.71426291  0.80481911  0.61534898    -0.74000
O520        O  0.76140884  0.69508599  0.68510176    -0.74000
O521        O  0.76425798  0.80216506  0.68866637    -0.74100
O522        O  0.71091977  0.69875651  0.61235201    -0.74200
O523        O  0.74939962  0.69376739  0.54767938    -0.74100
O524        O  0.80158507  0.80176468  0.62224526    -0.74100
O525        O  0.80031030  0.69510840  0.62090870    -0.74000
O526        O  0.75073992  0.80096383  0.54769688    -0.74100
Ni527      Ni  0.73642647  0.75023186  0.65266088     1.25400
Ni528      Ni  0.77690197  0.74789755  0.58222974     1.25400
C529        C  0.72456270  0.82078618  0.57008987     0.88200
C530        C  0.78858886  0.67686328  0.66435050     0.88100
C531        C  0.79149701  0.81963835  0.66786234     0.88100
C532        C  0.72128142  0.67881972  0.56797987     0.88300
O533        O  0.28950189  0.30714319  0.88517424    -0.74000
O534        O  0.23925340  0.19840289  0.81102467    -0.74000
O535        O  0.23853707  0.30542326  0.81244892    -0.74100
O536        O  0.29036341  0.20169989  0.88372554    -0.74200
O537        O  0.25248786  0.20123903  0.94948822    -0.74100
O538        O  0.20036473  0.30509352  0.87775281    -0.74100
O539        O  0.20145817  0.19910239  0.87683472    -0.74000
O540        O  0.25162165  0.30842459  0.95093321    -0.74100
Ni541      Ni  0.26566877  0.25322718  0.84569098     1.25400
Ni542      Ni  0.22515827  0.25348994  0.91618660     1.25400
C543        C  0.27916695  0.32520765  0.93035026     0.88200
C544        C  0.21197714  0.18084011  0.83180633     0.88100
C545        C  0.21101912  0.32236290  0.83320922     0.88100
C546        C  0.27991134  0.18434648  0.92826516     0.88300
O547        O  0.21034066  0.69232964  0.62966914    -0.74000
O548        O  0.25737657  0.80091794  0.55742709    -0.74000
O549        O  0.26160622  0.69507234  0.55896527    -0.74100
O550        O  0.20640200  0.79863461  0.62953425    -0.74200
O551        O  0.24307201  0.80533544  0.69706582    -0.74100
O552        O  0.29787759  0.70208259  0.62694744    -0.74100
O553        O  0.29380310  0.80829625  0.62554278    -0.74000
O554        O  0.24643863  0.69910153  0.69824100    -0.74100
Ni555      Ni  0.23256251  0.74655910  0.59158016     1.25400
Ni556      Ni  0.27167784  0.75386460  0.66429138     1.25400
C557        C  0.22065066  0.67755106  0.67524192     0.88200
C558        C  0.28312675  0.82273671  0.57991240     0.88100
C559        C  0.28905787  0.68140245  0.58174223     0.88100
C560        C  0.21562470  0.81927191  0.67473381     0.88300
C561        C  0.81342242  0.94479985  0.74744625    -0.20900
C562        C  0.84805255  0.95120889  0.73567448    -0.08900
C563        C  0.86473641  0.90746745  0.71165673     0.29900
C564        C  0.84631138  0.86446925  0.69065922    -0.20900
C565        C  0.81117010  0.86183397  0.69626323    -0.09000
C566        C  0.79511862  0.90090069  0.72757785     0.29900
F567        F  0.76133888  0.89834865  0.73644929    -0.19500
H568        H  0.79995813  0.97415524  0.77051982     0.18300
H569        H  0.85950046  0.83376908  0.66873719     0.18300
F570        F  0.89861107  0.90874372  0.70336560    -0.19500
C571        C  0.79801859  0.10904850  0.76379025    -0.20900
C572        C  0.80811936  0.13610918  0.81102485    -0.08900
C573        C  0.83904492  0.12275126  0.83432251     0.29900
C574        C  0.85815426  0.08177662  0.81277471    -0.20900
C575        C  0.84685111  0.05065773  0.76822182    -0.09000
C576        C  0.81740683  0.06788964  0.74194042     0.29900
F577        F  0.80694701  0.04450720  0.69540216    -0.19500
H578        H  0.77492592  0.11959523  0.74361339     0.18300
H579        H  0.88235082  0.07561861  0.83149087     0.18300
F580        F  0.85125919  0.14930311  0.87811502    -0.19500
C581        C  0.16206776  0.86899714  0.68026000    -0.20900
C582        C  0.19434250  0.86019546  0.70070248    -0.08900
C583        C  0.20545076  0.89088746  0.74522994     0.29900
C584        C  0.18549478  0.93204517  0.76551948    -0.20900
C585        C  0.15526520  0.94607275  0.73975367    -0.09000
C586        C  0.14237981  0.90994785  0.70017016     0.29900
F587        F  0.11029312  0.91228132  0.68124855    -0.19500
H588        H  0.15175375  0.84387186  0.64850838     0.18300
H589        H  0.19471117  0.95508854  0.79959032     0.18300
F590        F  0.23592595  0.88243494  0.76826662    -0.19500
C591        C  0.13962330  0.09079842  0.79086065    -0.20900
C592        C  0.15652402  0.04714396  0.76760036    -0.08900
C593        C  0.19111639  0.05449107  0.75462327     0.29900
C594        C  0.20881968  0.09927839  0.77370211    -0.20900
C595        C  0.19247790  0.13819415  0.80442100    -0.09000
C596        C  0.15735800  0.13476147  0.81061082     0.29900
F597        F  0.14019044  0.17326422  0.83705400    -0.19500
H598        H  0.11265840  0.08874364  0.79806357     0.18300
H599        H  0.23565443  0.10268178  0.76583794     0.18300
F600        F  0.20793811  0.02024215  0.72237916    -0.19500
C601        C  0.07468810  0.01555946  0.72334358    -0.20900
C602        C  0.10984809  0.01111598  0.71461759    -0.08900
C603        C  0.12177260  0.01984331  0.66214761     0.29900
C604        C  0.09922322  0.02352302  0.61948377    -0.20900
C605        C  0.06447099  0.01973445  0.62808879    -0.09000
C606        C  0.05219681  0.01783293  0.68033202     0.29900
F607        F  0.01842347  0.01705349  0.68961921    -0.19500
H608        H  0.06410564  0.01587754  0.76294632     0.18300
H609        H  0.10896270  0.02634260  0.57929965     0.18300
F610        F  0.15531473  0.01987030  0.65121340    -0.19500
C611        C  0.10711215  0.99769649  0.90653618    -0.20900
C612        C  0.07655384  0.96995640  0.90225284    -0.08900
C613        C  0.07002876  0.93892899  0.85616859     0.29900
C614        C  0.09144687  0.94260875  0.81192595    -0.20900
C615        C  0.11849957  0.97943689  0.81216237    -0.09000
C616        C  0.12880408  0.00030176  0.86294618     0.29900
F617        F  0.15925770  0.02435407  0.87086079    -0.19500
H618        H  0.11358797  0.01911453  0.94318758     0.18300
H619        H  0.08452495  0.92122555  0.77557096     0.18300
F620        F  0.04121025  0.90968077  0.85178190    -0.19500
C621        C  0.95204518  0.99325396  0.82649515    -0.20900
C622        C  0.93898103  0.98589744  0.87755864    -0.08900
C623        C  0.90484771  0.97251179  0.88322034     0.29900
C624        C  0.88321606  0.97379688  0.83911329    -0.20900
C625        C  0.89513707  0.98873509  0.78834127    -0.05800
C626        C  0.93073001  0.99198099  0.78181290     0.29900
F627        F  0.94557241  0.99174287  0.73321870    -0.19500
H628        H  0.97894113  0.99939223  0.82118188     0.18300
H629        H  0.85645407  0.96751927  0.84551638     0.18300
F630        F  0.89199383  0.96180874  0.93194565    -0.19500
C631        C  0.89526140  0.00629954  0.59808430    -0.20900
C632        C  0.92457356  0.03700884  0.60269868    -0.08900
C633        C  0.92906389  0.06993123  0.64813423     0.29900
C634        C  0.90762856  0.06409639  0.69225361    -0.20900
C635        C  0.88318010  0.02310301  0.69226201    -0.09000
C636        C  0.87374398  0.00131167  0.64143678     0.29900
F637        F  0.84450451  0.97391598  0.63315121    -0.19500
H638        H  0.88995019  0.98381568  0.56159265     0.18300
H639        H  0.91324811  0.08636048  0.72871615     0.18300
F640        F  0.95631468  0.10263685  0.65246183    -0.19500
C641        C  0.81150229  0.45304915  0.80118111    -0.20900
C642        C  0.83088649  0.44510636  0.75417994    -0.08900
C643        C  0.82850180  0.39488326  0.72810745     0.29900
C644        C  0.80925864  0.35440153  0.75060182    -0.20900
C645        C  0.79272056  0.36257196  0.79942272    -0.09000
C646        C  0.79310937  0.41252608  0.82366933     0.29900
F647        F  0.77652683  0.42171838  0.87029901    -0.19500
H648        H  0.81234926  0.49066434  0.82248606     0.18300
H649        H  0.80902531  0.31565889  0.73158997     0.18300
F650        F  0.84674677  0.38245757  0.68405955    -0.19500
C651        C  0.80296876  0.54402051  0.72309292    -0.20900
C652        C  0.83870223  0.54139868  0.72769030    -0.08900
C653        C  0.85738079  0.58663650  0.71272828     0.29900
C654        C  0.84109291  0.63088986  0.69302903    -0.20900
C655        C  0.80576901  0.63241895  0.68936892    -0.09000
C656        C  0.78685671  0.58906532  0.70586450     0.29900
F657        F  0.75262370  0.58867950  0.70173123    -0.19500
H658        H  0.78666277  0.51080563  0.73042671     0.18300
H659        H  0.85617239  0.66399196  0.68020891     0.18300
F660        F  0.89164140  0.58738151  0.71493263    -0.19500
C661        C  0.16365568  0.59686935  0.76315799    -0.20900
C662        C  0.16265256  0.54825673  0.73432938    -0.08900
C663        C  0.18328732  0.54320085  0.68821718     0.29900
C664        C  0.20287100  0.58504598  0.67102348    -0.20900
C665        C  0.20317007  0.63299379  0.69924048    -0.09000
C666        C  0.18407869  0.63863927  0.74605415     0.29900
F667        F  0.18357287  0.68544474  0.77330273    -0.19500
H668        H  0.14768428  0.60397959  0.79728198     0.18300
H669        H  0.21747679  0.58027917  0.63475560     0.18300
F670        F  0.18403589  0.49744975  0.65906396    -0.19500
C671        C  0.14107869  0.40549981  0.77513850    -0.20900
C672        C  0.15866331  0.45241743  0.76262189    -0.08900
C673        C  0.19416751  0.45365484  0.77396174     0.29900
C674        C  0.21054459  0.40998825  0.79367913    -0.20900
C675        C  0.19263266  0.36477942  0.80677689    -0.09000
C676        C  0.15764853  0.36262868  0.79747247     0.29900
F677        F  0.13948131  0.31919016  0.81010346    -0.19500
H678        H  0.11395354  0.40287557  0.76966013     0.18300
H679        H  0.23739602  0.41290174  0.80218741     0.18300
F680        F  0.21358856  0.49767630  0.77120498    -0.19500
C681        C  0.07605133  0.53864470  0.63572061    -0.20900
C682        C  0.06900233  0.49096045  0.60884588    -0.08900
C683        C  0.08727492  0.44608325  0.62318216     0.29900
C684        C  0.11128882  0.44915599  0.66491541    -0.20900
C685        C  0.11654903  0.49658244  0.69457020    -0.09000
C686        C  0.09896943  0.54166054  0.67755649     0.29900
F687        F  0.10177115  0.58854509  0.70442587    -0.19500
H688        H  0.06281406  0.57409334  0.62580000     0.18300
H689        H  0.12479708  0.41405137  0.67440296     0.18300
F690        F  0.08169493  0.39908875  0.59760894    -0.19500
C691        C  0.10213929  0.52236964  0.89051539    -0.20900
C692        C  0.06749484  0.51347274  0.88173844    -0.08900
C693        C  0.05551702  0.50524758  0.83001508     0.29900
C694        C  0.07771916  0.50402210  0.78746468    -0.20900
C695        C  0.11315219  0.51240791  0.79428123    -0.09000
C696        C  0.12485879  0.52150106  0.84736718     0.29900
F697        F  0.15839725  0.52676831  0.85790887    -0.19500
H698        H  0.11172418  0.52778419  0.93082478     0.18300
H699        H  0.06622669  0.49308027  0.74968409     0.18300
F700        F  0.02212475  0.49562883  0.82073970    -0.19500
C701        C  0.91801110  0.44866727  0.85243640    -0.20900
C702        C  0.92539471  0.49592795  0.87989695    -0.08900
C703        C  0.90731456  0.54126210  0.86663272     0.29900
C704        C  0.88395242  0.53953298  0.82424086    -0.20900
C705        C  0.87882338  0.49291279  0.79334371    -0.09000
C706        C  0.89514845  0.44677581  0.81048429     0.29900
F707        F  0.89156249  0.40025447  0.78315841    -0.19500
H708        H  0.93089757  0.41279230  0.86204817     0.18300
H709        H  0.87067806  0.57510723  0.81540524     0.18300
F710        F  0.91231390  0.58737053  0.89413506    -0.19500
C711        C  0.89131563  0.47204360  0.59630829    -0.20900
C712        C  0.92636252  0.47326522  0.60500538    -0.08900
C713        C  0.93887302  0.47506475  0.65680408     0.29900
C714        C  0.91698810  0.47791685  0.69968335    -0.20900
C715        C  0.88121178  0.47709907  0.69309978    -0.09000
C716        C  0.86886999  0.47378262  0.63981660     0.29900
F717        F  0.83516017  0.47479192  0.62979412    -0.19500
H718        H  0.88138363  0.47164658  0.55596006     0.18300
H719        H  0.92937464  0.48451486  0.73761219     0.18300
F720        F  0.97272443  0.47782563  0.66599745    -0.19500
C721        C  0.69349255  0.55075303  0.49902382    -0.20900
C722        C  0.65844069  0.55030052  0.51020151    -0.08900
C723        C  0.64432670  0.59810463  0.52974917     0.29900
C724        C  0.66496922  0.64018312  0.54635414    -0.20900
C725        C  0.70010266  0.63761239  0.54126620    -0.09000
C726        C  0.71414291  0.59369447  0.51485454     0.29900
F727        F  0.74799695  0.59086312  0.50708923    -0.19500
H728        H  0.70543769  0.51799182  0.47881786     0.18300
H729        H  0.65342052  0.67443731  0.56490903     0.18300
F730        F  0.61053470  0.60253718  0.53754380    -0.19500
C731        C  0.68155081  0.43220309  0.51298988    -0.20900
C732        C  0.65353438  0.44983309  0.98360884    -0.08900
C733        C  0.64214022  0.41636917  0.94051642     0.29900
C734        C  0.66099114  0.37324767  0.92325033    -0.20900
C735        C  0.69099579  0.35985253  0.94895883    -0.09000
C736        C  0.70059346  0.38891558  0.99535347     0.29900
F737        F  0.72861117  0.37624015  0.52330251    -0.19500
H738        H  0.68962150  0.45361617  0.54880592     0.18300
H739        H  0.65181912  0.35016431  0.88916308     0.18300
F740        F  0.61193678  0.42255497  0.91590633    -0.19500
C741        C  0.30655525  0.45213676  0.00086503    -0.20900
C742        C  0.34184188  0.45134561  0.99181430    -0.08900
C743        C  0.35588279  0.40287686  0.97413933     0.29900
C744        C  0.33514461  0.36142240  0.95641286    -0.20900
C745        C  0.29998974  0.36565617  0.95834804    -0.09000
C746        C  0.28575781  0.41006263  0.98342417     0.29900
F747        F  0.25172692  0.41435234  0.98787770    -0.19500
H748        H  0.29448681  0.48550868  0.51976910     0.18300
H749        H  0.34664959  0.32650206  0.93915925     0.18300
F750        F  0.38978508  0.39730514  0.96879531    -0.19500
C751        C  0.35862330  0.58234494  0.56193586    -0.20900
C752        C  0.34704798  0.55152302  0.51750404    -0.08900
C753        C  0.31961975  0.57162381  0.48824973     0.29900
C754        C  0.30102293  0.61430476  0.50859001    -0.20900
C755        C  0.31055508  0.64018691  0.55671540    -0.09000
C756        C  0.34065216  0.62521697  0.58158358     0.29900
F757        F  0.35289199  0.65151779  0.62551445    -0.19500
H758        H  0.38198800  0.57409529  0.58230765     0.18300
H759        H  0.27880757  0.62649295  0.48701079     0.18300
F760        F  0.30983225  0.54845423  0.94120914    -0.19500
C761        C  0.42906129  0.55723993  0.89806388    -0.20900
C762        C  0.42421716  0.52288632  0.85406987    -0.08900
C763        C  0.39583674  0.48968521  0.85244513     0.29900
C764        C  0.37471398  0.48677136  0.89666554    -0.20900
C765        C  0.38299145  0.51364904  0.94531858    -0.09000
C766        C  0.40840662  0.55333536  0.94311005     0.29900
F767        F  0.41569911  0.58461579  0.98640030    -0.19500
H768        H  0.45049495  0.58413462  0.89934529     0.18300
H769        H  0.35282238  0.46123196  0.89274248     0.18300
F770        F  0.38932300  0.45842382  0.80876270    -0.19500
C771        C  0.40202733  0.47052213  0.63752761    -0.20900
C772        C  0.43672179  0.47486143  0.62858895    -0.08900
C773        C  0.44886970  0.47664831  0.57632888     0.29900
C774        C  0.42628953  0.47991036  0.53366651    -0.20900
C775        C  0.39113609  0.48395980  0.54275846    -0.09000
C776        C  0.37934058  0.47390783  0.59501886     0.29900
F777        F  0.34577005  0.47328754  0.60596834    -0.19500
H778        H  0.39243428  0.46785334  0.67782879     0.18300
H779        H  0.43684504  0.48091021  0.49405612     0.18300
F780        F  0.48262711  0.47726096  0.56681176    -0.19500
C781        C  0.59847541  0.53235756  0.86422671    -0.20900
C782        C  0.56376721  0.52813380  0.87320648    -0.08900
C783        C  0.55165807  0.52636171  0.92549192     0.29900
C784        C  0.57428301  0.52287417  0.96807771    -0.20900
C785        C  0.60939444  0.51806813  0.95881817    -0.09000
C786        C  0.62120457  0.52832071  0.90663606     0.29900
F787        F  0.65474626  0.52841040  0.89555938    -0.19500
H788        H  0.60803632  0.53512515  0.82393293     0.18300
H789        H  0.56377871  0.52212283  0.00770638     0.18300
F790        F  0.51790735  0.52586336  0.93511989    -0.19500
C791        C  0.57041677  0.44555774  0.60274537    -0.20900
C792        C  0.57602340  0.47910253  0.64715837    -0.08900
C793        C  0.60528616  0.51034586  0.64933075     0.29900
C794        C  0.62653793  0.51247919  0.60512713    -0.20900
C795        C  0.61747610  0.48709683  0.55599934    -0.09000
C796        C  0.59124620  0.44867970  0.55781622     0.29900
F797        F  0.58322572  0.41826865  0.51426110    -0.19500
H798        H  0.54836522  0.41991995  0.60112735     0.18300
H799        H  0.64909676  0.53654951  0.60926626     0.18300
F800        F  0.61262867  0.54035817  0.69356248    -0.19500
C801        C  0.67050633  0.08762845  0.02540711    -0.20900
C802        C  0.66747218  0.04157149  0.99283267    -0.08900
C803        C  0.68837471  0.03777225  0.94690862     0.29900
C804        C  0.70693552  0.08075062  0.93009391    -0.20900
C805        C  0.70654028  0.12818005  0.95910883    -0.09000
C806        C  0.68966760  0.13095901  0.00830978     0.29900
F807        F  0.69002337  0.17632163  0.03802445    -0.19500
H808        H  0.65743686  0.09112071  0.06306004     0.18300
H809        H  0.72052224  0.07768192  0.89265212     0.18300
F810        F  0.68808094  0.99390854  0.91483035    -0.19500
C811        C  0.66981921  0.90395361  0.48018351    -0.20900
C812        C  0.66602080  0.94957001  0.51302773    -0.08900
C813        C  0.68564865  0.95329850  0.56063699     0.29900
C814        C  0.70507742  0.91166090  0.57715617    -0.20900
C815        C  0.70696249  0.86540054  0.54643109    -0.09000
C816        C  0.69013179  0.86210164  0.49682817     0.29900
F817        F  0.69212045  0.81775544  0.46575469    -0.19500
H818        H  0.65705765  0.90016657  0.94210290     0.18300
H819        H  0.71824731  0.91518957  0.61511644     0.18300
F820        F  0.68422202  0.99645759  0.59356709    -0.19500
C821        C  0.33430846  0.90684935  0.48656958    -0.20900
C822        C  0.33359646  0.95609155  0.51407469    -0.08900
C823        C  0.31361289  0.96008678  0.56109389     0.29900
C824        C  0.29735491  0.91644377  0.58134664    -0.20900
C825        C  0.29933375  0.86778836  0.55501302    -0.09000
C826        C  0.31688085  0.86321638  0.50654730     0.29900
F827        F  0.31873866  0.81599461  0.48029436    -0.19500
H828        H  0.34983421  0.90066070  0.45168583     0.18300
H829        H  0.28329097  0.92054098  0.11826243     0.18300
F830        F  0.31108275  0.00630966  0.08898946    -0.19500
C831        C  0.28199214  0.09431045  0.96196996    -0.20900
C832        C  0.29869515  0.14180083  0.95350513    -0.08900
C833        C  0.33358075  0.14552451  0.96328078     0.29900
C834        C  0.35132431  0.10198970  0.48142074    -0.20900
C835        C  0.33505136  0.05292346  0.98910138    -0.09000
C836        C  0.29966015  0.05007728  0.97744746     0.29900
F837        F  0.28176685  0.00431518  0.97609634    -0.19500
H838        H  0.25530226  0.09029691  0.95263294     0.18300
H839        H  0.37831526  0.10607977  0.48759669     0.18300
F840        F  0.35053837  0.19116728  0.45469918    -0.19500
C841        C  0.42184273  0.96369169  0.60563230    -0.20900
C842        C  0.42585689  0.00846926  0.63839584    -0.08900
C843        C  0.40541291  0.05244178  0.62948376     0.29900
C844        C  0.38183803  0.05142967  0.58729959    -0.20900
C845        C  0.37917343  0.00713915  0.55235431    -0.09000
C846        C  0.39935264  0.96283489  0.56349581     0.29900
F847        F  0.39899151  0.91914200  0.53119174    -0.19500
H848        H  0.43717349  0.92926051  0.61119753     0.18300
H849        H  0.36623199  0.08543977  0.58207691     0.18300
F850        F  0.40805658  0.09617173  0.66147426    -0.19500
C851        C  0.41584480  0.01402415  0.95837228    -0.20900
C852        C  0.38144945  0.99745890  0.95274169    -0.08900
C853        C  0.37030274  0.98373728  0.90036451     0.29900
C854        C  0.39332607  0.98200045  0.85750967    -0.20900
C855        C  0.42735082  0.99669346  0.86554744    -0.09000
C856        C  0.43824534  0.01281259  0.91614095     0.29900
F857        F  0.47087826  0.02803785  0.92480139    -0.19500
H858        H  0.42611086  0.03019006  0.99532677     0.18300
H859        H  0.38440174  0.97091059  0.81783242     0.18300
F860        F  0.33714168  0.97352139  0.89023847    -0.19500
C861        C  0.57302481  0.94849044  0.89775412    -0.20900
C862        C  0.56942398  0.99315770  0.86627316    -0.08900
C863        C  0.59002342  0.03707439  0.87787421     0.29900
C864        C  0.61326785  0.03648955  0.91954999    -0.20900
C865        C  0.61814966  0.99165121  0.95130836    -0.09000
C866        C  0.59639396  0.94803327  0.94040380     0.29900
F867        F  0.59657428  0.90564700  0.97203429    -0.19500
H868        H  0.55678346  0.91446071  0.89066726     0.18300
H869        H  0.62646429  0.07324855  0.92762997     0.18300
F870        F  0.58751774  0.08159429  0.84947885    -0.19500
C871        C  0.60960133  0.95720442  0.58131525    -0.20900
C872        C  0.61684755  0.00157354  0.54998641    -0.08900
C873        C  0.59675683  0.04660039  0.55984280     0.29900
C874        C  0.57368976  0.04845229  0.60267158    -0.20900
C875        C  0.56835707  0.00452327  0.63475511    -0.09000
C876        C  0.58643779  0.95869521  0.62282058     0.29900
F877        F  0.58167711  0.91436896  0.65095741    -0.19500
H878        H  0.62115743  0.91955024  0.57334797     0.18300
H879        H  0.55909265  0.08372380  0.60952352     0.18300
F880        F  0.59853213  0.08839159  0.52746143    -0.19500
loop_ 
_geom_bond_atom_site_label_1 
_geom_bond_atom_site_label_2 
_geom_bond_distance 
_geom_bond_site_symmetry_2 
_ccdc_geom_bond_type 
O1           Ni9   1.917       .  S
O1           C11   1.279       .  A
O2           Ni9   1.923       .  S
O2           C12   1.285   1_545  A
O3           Ni9   1.931       .  S
O3           C13   1.283       .  A
O4           Ni9   1.919       .  S
O4           C14   1.283   1_545  A
O5          Ni10   1.914       .  S
O5           C14   1.278       .  A
O6          Ni10   1.917       .  S
O6           C13   1.283   1_565  A
O7          Ni10   1.924       .  S
O7           C12   1.281       .  A
O8          Ni10   1.903       .  S
O8           C11   1.282   1_565  A
Ni9         Ni10   2.386   1_545  S
C11         C402   1.475       .  S
C12         C422   1.490       .  S
C13         C435   1.491       .  S
C14         C415   1.466       .  S
C15         C382   1.553   1_545  S
C15         C405   1.555       .  S
C15         C835   1.564   1_554  S
C15         C852   1.566   1_544  S
C16         C372   1.561       .  S
C16         C432   1.568   1_565  S
C16         C802   1.557   1_564  S
C16         C865   1.569   1_554  S
O17         Ni25   1.920       .  S
O17          C27   1.280       .  A
O18         Ni25   1.911       .  S
O18          C28   1.281       .  A
O19         Ni25   1.912       .  S
O19          C29   1.278       .  A
O20         Ni25   1.917       .  S
O20          C30   1.282       .  A
O21         Ni26   1.911       .  S
O21          C30   1.278       .  A
O22         Ni26   1.916       .  S
O22          C29   1.281       .  A
O23         Ni26   1.922       .  S
O23          C28   1.281       .  A
O24         Ni26   1.915       .  S
O24          C27   1.281       .  A
Ni25        Ni26   2.394       .  S
C27         C352   1.469       .  S
C28         C322   1.468       .  S
C29         C332   1.460       .  S
C30         C342   1.461       .  S
C31         C312   1.560   1_556  S
C31         C335   1.557   1_556  S
C31         C742   1.558       .  S
C31         C765   1.561       .  S
C32         C282   1.563       .  S
C32         C355   1.564       .  S
C32         C732   1.565   1_554  S
C32         C785   1.555   1_554  S
O33        Ni481   1.918   1_554  S
O33          C43   1.280       .  A
O34         Ni41   1.914   1_455  S
O34          C44   1.281       .  A
O35        Ni481   1.923   1_454  S
O35          C45   1.281       .  A
O36         Ni41   1.912       .  S
O36          C46   1.283       .  A
O37         Ni42   1.917       .  S
O37          C46   1.280       .  A
O38        Ni482   1.912   1_455  S
O38          C45   1.284       .  A
O39         Ni42   1.918   1_455  S
O39          C44   1.279       .  A
O40        Ni482   1.913       .  S
O40          C43   1.280       .  A
Ni41        O473   1.918       .  S
Ni41        O475   1.923   1_655  S
Ni41        Ni42   2.389       .  S
Ni42        O478   1.912   1_655  S
Ni42        O480   1.913       .  S
C43         C272   1.463       .  S
C44         C252   1.464       .  S
C45         C242   1.487       .  S
C46         C262   1.482       .  S
C47         C222   1.554       .  S
C47         C232   1.571       .  S
C47         C245   1.563       .  S
C47         C255   1.567       .  S
C48         C202   1.560       .  S
C48         C212   1.568       .  S
C48         C265   1.559       .  S
C48         C275   1.568       .  S
O49        Ni497   1.923   1_655  S
O49          C59   1.283   1_545  A
O50         Ni57   1.915   1_554  S
O50          C60   1.279       .  A
O51        Ni497   1.911       .  S
O51          C61   1.281   1_545  A
O52         Ni57   1.924   1_654  S
O52          C62   1.280       .  A
O53         Ni58   1.911       .  S
O53          C62   1.282   1_565  A
O54        Ni498   1.923   1_455  S
O54          C61   1.281       .  A
O55         Ni58   1.918   1_455  S
O55          C60   1.281   1_565  A
O56        Ni498   1.912       .  S
O56          C59   1.278       .  A
Ni57        O489   1.923   1_455  S
Ni57        O491   1.911       .  S
Ni57        Ni58   2.393   1_446  S
Ni58        O494   1.923   1_654  S
Ni58        O496   1.912   1_554  S
C59         C182   1.467       .  S
C60         C165   1.465       .  S
C61         C172   1.469       .  S
C62         C192   1.469       .  S
C63         C145   1.556       .  S
C63         C152   1.559   1_565  S
C63         C162   1.557   1_565  S
C63         C175   1.563       .  S
C64         C122   1.559   1_545  S
C64         C135   1.566       .  S
C64         C185   1.563   1_545  S
C64         C195   1.560       .  S
O65         Ni73   1.923       .  S
O65          C75   1.284       .  A
O66         Ni73   1.920       .  S
O66          C76   1.281       .  A
O67         Ni73   1.923       .  S
O67          C77   1.280       .  A
O68         Ni73   1.918       .  S
O68          C78   1.282       .  A
O69         Ni74   1.915       .  S
O69          C78   1.278       .  A
O70         Ni74   1.911       .  S
O70          C77   1.281       .  A
O71         Ni74   1.924       .  S
O71          C76   1.285       .  A
O72         Ni74   1.921       .  S
O72          C75   1.281       .  A
Ni73        Ni74   2.388       .  S
C75         C132   1.491       .  S
C76         C295   1.490       .  S
C77         C365   1.468       .  S
C78         C205   1.467       .  S
O79         Ni87   1.915       .  S
O79          C89   1.281       .  A
O80         Ni87   1.922       .  S
O80          C90   1.283       .  A
O81         Ni87   1.916       .  S
O81          C91   1.280       .  A
O82         Ni87   1.910       .  S
O82          C92   1.280       .  A
O83         Ni88   1.931       .  S
O83          C92   1.283       .  A
O84         Ni88   1.931       .  S
O84          C91   1.285       .  A
O85         Ni88   1.922       .  S
O85          C90   1.281       .  A
O86         Ni88   1.932       .  S
O86          C89   1.282       .  A
Ni87        Ni88   2.388       .  S
C89         C375   1.476       .  S
C90         C215   1.479       .  S
C91         C125   1.484       .  S
C92         C285   1.479       .  S
O93        Ni101   1.909       .  S
O93         C103   1.281       .  A
O94        Ni101   1.921       .  S
O94         C104   1.281       .  A
O95        Ni101   1.923       .  S
O95         C105   1.283       .  A
O96        Ni101   1.917       .  S
O96         C106   1.280       .  A
O97        Ni102   1.929       .  S
O97         C106   1.284       .  A
O98        Ni102   1.925       .  S
O98         C105   1.282       .  A
O99        Ni102   1.913       .  S
O99         C104   1.281       .  A
O100       Ni102   1.925       .  S
O100        C103   1.281       .  A
Ni101      Ni102   2.390       .  S
C103        C305   1.473       .  S
C104        C155   1.477       .  S
C105        C235   1.479       .  S
C106        C392   1.476       .  S
O107       Ni115   1.907       .  S
O107        C117   1.279       .  A
O108       Ni115   1.910       .  S
O108        C118   1.277       .  A
O109       Ni115   1.921       .  S
O109        C119   1.282       .  A
O110       Ni115   1.924       .  S
O110        C120   1.286       .  A
O111       Ni116   1.912       .  S
O111        C120   1.278       .  A
O112       Ni116   1.913       .  S
O112        C119   1.282       .  A
O113       Ni116   1.918       .  S
O113        C118   1.282       .  A
O114       Ni116   1.924       .  S
O114        C117   1.281       .  A
Ni115      Ni116   2.389       .  S
C117        C225   1.466       .  S
C118        C385   1.463       .  S
C119        C315   1.485       .  S
C120        C142   1.485       .  S
C121        C122   1.412       .  A
C121        C126   1.404       .  A
C121        H128   1.079       .  S
C122        C123   1.422       .  A
C123        C124   1.398       .  A
C123        F130   1.358       .  S
C124        C125   1.399       .  A
C124        H129   1.083       .  S
C125        C126   1.408       .  A
C126        F127   1.357       .  S
C131        C132   1.408       .  A
C131        C136   1.406       .  A
C131        H138   1.083       .  S
C132        C133   1.404       .  A
C133        C134   1.393       .  A
C133        F140   1.358       .  S
C134        C135   1.419       .  A
C134        H139   1.080       .  S
C135        C136   1.416       .  A
C136        F137   1.356       .  S
C141        C142   1.397       .  A
C141        C146   1.391       .  A
C141        H148   1.083       .  S
C142        C143   1.411       .  A
C143        C144   1.404       .  A
C143        F150   1.357       .  S
C144        C145   1.412       .  A
C144        H149   1.083       .  S
C145        C146   1.423       .  A
C146        F147   1.357       .  S
C151        C152   1.416       .  A
C151        C156   1.393       .  A
C151        H158   1.084       .  S
C152        C153   1.420       .  A
C153        C154   1.403       .  A
C153        F160   1.355       .  S
C154        C155   1.403       .  A
C154        H159   1.084       .  S
C155        C156   1.401       .  A
C156        F157   1.358       .  S
C161        C162   1.415       .  A
C161        C166   1.398       .  A
C161        H168   1.078       .  S
C162        C163   1.421       .  A
C163        C164   1.396       .  A
C163        F170   1.356       .  S
C164        C165   1.396       .  A
C164        H169   1.083       .  S
C165        C166   1.400       .  A
C166        F167   1.358       .  S
C171        C172   1.396       .  A
C171        C176   1.394   1_565  A
C171        H178   1.084   1_565  S
C172        C173   1.403       .  A
C173        C174   1.402       .  A
C173        F180   1.357       .  S
C174        C175   1.415       .  A
C174        H179   1.081       .  S
C175        C176   1.422   1_565  A
C176        F177   1.357       .  S
C181        C182   1.398       .  A
C181        C186   1.399       .  A
C181        H188   1.083       .  S
C182        C183   1.398       .  A
C183        C184   1.397       .  A
C183        F190   1.358       .  S
C184        C185   1.418       .  A
C184        H189   1.083       .  S
C185        C186   1.420       .  A
C186        F187   1.354       .  S
C191        C192   1.394       .  A
C191        C196   1.390       .  A
C191        H198   1.084   1_545  S
C192        C193   1.405       .  A
C193        C194   1.406       .  A
C193        F200   1.357       .  S
C194        C195   1.415       .  A
C194        H199   1.083       .  S
C195        C196   1.422       .  A
C196        F197   1.357   1_545  S
C201        C202   1.419       .  A
C201        C206   1.388       .  A
C201        H208   1.084       .  S
C202        C203   1.422       .  A
C203        C204   1.405       .  A
C203        F210   1.353       .  S
C204        C205   1.401       .  A
C204        H209   1.083       .  S
C205        C206   1.394       .  A
C206        F207   1.358       .  S
C211        C212   1.421       .  A
C211        C216   1.396       .  A
C211        H218   1.078       .  S
C212        C213   1.421       .  A
C213        C214   1.404       .  A
C213        F220   1.357       .  S
C214        C215   1.402       .  A
C214        H219   1.083       .  S
C215        C216   1.399       .  A
C216        F217   1.358       .  S
C221        C222   1.416       .  A
C221        C226   1.405       .  A
C221        H228   1.078       .  S
C222        C223   1.421       .  A
C223        C224   1.389       .  A
C223        F230   1.358       .  S
C224        C225   1.394       .  A
C224        H229   1.084       .  S
C225        C226   1.403       .  A
C226        F227   1.357       .  S
C231        C232   1.418       .  A
C231        C236   1.407       .  A
C231        H238   1.083       .  S
C232        C233   1.433       .  A
C233        C234   1.394       .  A
C233        F240   1.355       .  S
C234        C235   1.392       .  A
C234        H239   1.085       .  S
C235        C236   1.404       .  A
C236        F237   1.357       .  S
C241        C242   1.397       .  A
C241        C246   1.384       .  A
C241        H248   1.083       .  S
C242        C243   1.413       .  A
C243        C244   1.411       .  A
C243        F250   1.357       .  S
C244        C245   1.413       .  A
C244        H249   1.078       .  S
C245        C246   1.423       .  A
C246        F247   1.357       .  S
C251        C252   1.403       .  A
C251        C256   1.409       .  A
C251        H258   1.083       .  S
C252        C253   1.388       .  A
C253        C254   1.384       .  A
C253        F260   1.359       .  S
C254        C255   1.425       .  A
C254        H259   1.077       .  S
C255        C256   1.420       .  A
C256        F257   1.357       .  S
C261        C262   1.397       .  A
C261        C266   1.384       .  A
C261        H268   1.083       .  S
C262        C263   1.411       .  A
C263        C264   1.406       .  A
C263        F270   1.357       .  S
C264        C265   1.411       .  A
C264        H269   1.080       .  S
C265        C266   1.422       .  A
C266        F267   1.357       .  S
C271        C272   1.403       .  A
C271        C276   1.409       .  A
C271        H278   1.083       .  S
C272        C273   1.387       .  A
C273        C274   1.383       .  A
C273        F280   1.359       .  S
C274        C275   1.425       .  A
C274        H279   1.076       .  S
C275        C276   1.420       .  A
C276        F277   1.357       .  S
C281        C282   1.416   1_556  A
C281        C286   1.405   1_556  A
C281        H288   1.078       .  S
C282        C283   1.420       .  A
C283        C284   1.393       .  A
C283        F290   1.358       .  S
C284        C285   1.399       .  A
C284        H289   1.083       .  S
C285        C286   1.405       .  A
C286        F287   1.357       .  S
C291        C732   1.413   1_554  A
C291        C736   1.405   1_554  A
C291        H298   1.083       .  S
C292        C472   1.565       .  S
C292        C293   1.426       .  A
C292        C731   1.413       .  A
C293        C294   1.394       .  A
C293        F300   1.356       .  S
C294        C295   1.399       .  A
C294        H299   1.083       .  S
C295        C296   1.410       .  A
C296        C731   1.405       .  A
C296        F737   1.357       .  S
F297        C736   1.357   1_554  S
C301        C302   1.416       .  A
C301        C306   1.403       .  A
C301        H748   1.078       .  S
C302        C471   1.558       .  S
C302        C303   1.419       .  A
C303        C304   1.392       .  A
C303        F310   1.358       .  S
C304        C305   1.398       .  A
C304        H309   1.083       .  S
C305        C306   1.403       .  A
C306        F307   1.357       .  S
H308        C741   1.078       .  S
C311        C312   1.416       .  A
C311        C316   1.389       .  A
C311        H318   1.080       .  S
C312        C313   1.416   1_554  A
C313        C314   1.404   1_556  A
C313        F760   1.357       .  S
C314        C315   1.407       .  A
C314        H319   1.083   1_554  S
C315        C316   1.404       .  A
C316        F317   1.358       .  S
F320        C753   1.357       .  S
C321        C322   1.400       .  A
C321        C326   1.401       .  A
C321        H328   1.084       .  S
C322        C323   1.398       .  A
C323        C324   1.393       .  A
C323        F330   1.358       .  S
C324        C325   1.417       .  A
C324        H329   1.080       .  S
C325        C471   1.561       .  S
C325        C326   1.420       .  A
C326        F327   1.356       .  S
C331        C332   1.396       .  A
C331        C336   1.396       .  A
C331        H338   1.084       .  S
C332        C333   1.398       .  A
C333        C334   1.396       .  A
C333        F340   1.358       .  S
C334        C335   1.415       .  A
C334        H339   1.079   1_554  S
C335        C336   1.421       .  A
C336        F337   1.358       .  S
C341        C342   1.396       .  A
C341        C346   1.397       .  A
C341        H348   1.083       .  S
C342        C343   1.398       .  A
C343        C344   1.396       .  A
C343        F350   1.358       .  S
C344        C345   1.416       .  A
C344        H349   1.078       .  S
C345        C472   1.555       .  S
C345        C346   1.420       .  A
C346        F347   1.357       .  S
C351        C352   1.400       .  A
C351        C356   1.401       .  A
C351        H358   1.084       .  S
C352        C353   1.397       .  A
C353        C354   1.395       .  A
C353        F360   1.358       .  S
C354        C355   1.418       .  A
C354        H359   1.080       .  S
C355        C356   1.420       .  A
C356        F357   1.356       .  S
C361        C362   1.414       .  A
C361        C366   1.408       .  A
C361        H368   1.080       .  S
C362        C456   1.557   1_545  S
C362        C363   1.421       .  A
C363        C364   1.386       .  A
C363        F370   1.358   1_545  S
C364        C365   1.392       .  A
C364        H369   1.084       .  S
C365        C366   1.405       .  A
C366        F367   1.357       .  S
C371        C372   1.415   1_556  A
C371        C376   1.413       .  A
C371        H818   1.080       .  S
C372        C373   1.422       .  A
C373        C374   1.388       .  A
C373        F380   1.358       .  S
C374        C375   1.392       .  A
C374        H379   1.084       .  S
C375        C376   1.408   1_554  A
C376        F377   1.357       .  S
H378        C811   1.080       .  S
C381        C382   1.414   1_556  A
C381        C386   1.405   1_556  A
C381        H388   1.079       .  S
C382        C383   1.423       .  A
C383        C384   1.386       .  A
C383        F830   1.358   1_565  S
C384        C385   1.390       .  A
C384        H829   1.085       .  S
C385        C386   1.404       .  A
C386        F387   1.357   1_554  S
H389        C824   1.085       .  S
F390        C823   1.358   1_545  S
C391        C392   1.393       .  A
C391        C396   1.395       .  A
C391        H398   1.084       .  S
C392        C393   1.403       .  A
C393        C834   1.404       .  A
C393        F840   1.357       .  S
C394        C833   1.404       .  A
C394        C835   1.416       .  A
C394        H399   1.082       .  S
C395        C455   1.564       .  S
C395        C396   1.430       .  A
C395        C834   1.416       .  A
C396        F397   1.356       .  S
F400        C833   1.357       .  S
C401        C402   1.394   1_565  A
C401        C406   1.378       .  A
C401        H408   1.083       .  S
C402        C403   1.411       .  A
C403        C404   1.407       .  A
C403        F410   1.357       .  S
C404        C405   1.411       .  A
C404        H409   1.080       .  S
C405        C406   1.422   1_545  A
C406        F407   1.358       .  S
C411        C412   1.426   1_545  A
C411        C416   1.383       .  A
C411        H418   1.079       .  S
C412        C455   1.566   1_565  S
C412        C413   1.417       .  A
C413        C414   1.411       .  A
C413        F420   1.357       .  S
C414        C415   1.406       .  A
C414        H419   1.083       .  S
C415        C416   1.388   1_565  A
C416        F417   1.359       .  S
C421        C422   1.409       .  A
C421        C426   1.411       .  A
C421        H428   1.083       .  S
C422        C423   1.399   1_565  A
C423        C424   1.390       .  A
C423        F430   1.358       .  S
C424        C425   1.423   1_545  A
C424        H429   1.080       .  S
C425        C456   1.569       .  S
C425        C426   1.417       .  A
C426        F427   1.356       .  S
C431        C432   1.420   1_565  A
C431        C436   1.389       .  A
C431        H438   1.081       .  S
C432        C433   1.419       .  A
C433        C434   1.412       .  A
C433        F440   1.356       .  S
C434        C435   1.409       .  A
C434        H439   1.083       .  S
C435        C436   1.401   1_545  A
C436        F437   1.358       .  S
O441       Ni449   1.917       .  S
O441        C451   1.279       .  A
O442       Ni449   1.923       .  S
O442        C452   1.285   1_545  A
O443       Ni449   1.931       .  S
O443        C453   1.283       .  A
O444       Ni449   1.919       .  S
O444        C454   1.283   1_545  A
O445       Ni450   1.914       .  S
O445        C454   1.278       .  A
O446       Ni450   1.917       .  S
O446        C453   1.283   1_565  A
O447       Ni450   1.924       .  S
O447        C452   1.281       .  A
O448       Ni450   1.903       .  S
O448        C451   1.282   1_565  A
Ni449      Ni450   2.386   1_545  S
C451        C842   1.475       .  S
C452        C862   1.490       .  S
C453        C875   1.491       .  S
C454        C855   1.466       .  S
C455        C822   1.553   1_545  S
C455        C845   1.555       .  S
C456        C812   1.561       .  S
C456        C872   1.568   1_565  S
O457       Ni465   1.920       .  S
O457        C467   1.280       .  A
O458       Ni465   1.911       .  S
O458        C468   1.281       .  A
O459       Ni465   1.912       .  S
O459        C469   1.278       .  A
O460       Ni465   1.917       .  S
O460        C470   1.282       .  A
O461       Ni466   1.911       .  S
O461        C470   1.278       .  A
O462       Ni466   1.916       .  S
O462        C469   1.281       .  A
O463       Ni466   1.922       .  S
O463        C468   1.281       .  A
O464       Ni466   1.915       .  S
O464        C467   1.282       .  A
Ni465      Ni466   2.394       .  S
C467        C792   1.469       .  S
C468        C762   1.468       .  S
C469        C772   1.461       .  S
C470        C782   1.461       .  S
C471        C752   1.560       .  S
C471        C775   1.557       .  S
C472        C722   1.563       .  S
C472        C795   1.564       .  S
O473        C483   1.280       .  A
O474       Ni481   1.914   1_455  S
O474        C484   1.281       .  A
O475        C485   1.281       .  A
O476       Ni481   1.912       .  S
O476        C486   1.283       .  A
O477       Ni482   1.917   1_556  S
O477        C486   1.280       .  A
O478        C485   1.284       .  A
O479       Ni482   1.918   1_456  S
O479        C484   1.279       .  A
O480        C483   1.280       .  A
Ni481      Ni482   2.389   1_556  S
C483        C712   1.463       .  S
C484        C692   1.464       .  S
C485        C682   1.487       .  S
C486        C702   1.482       .  S
C487        C662   1.554       .  S
C487        C672   1.571       .  S
C487        C685   1.563       .  S
C487        C695   1.567       .  S
C488        C642   1.560       .  S
C488        C652   1.568       .  S
C488        C705   1.559       .  S
C488        C715   1.568       .  S
O489        C499   1.283   1_545  A
O490       Ni497   1.915       .  S
O490        C500   1.279       .  A
O491        C501   1.281   1_545  A
O492       Ni497   1.924   1_655  S
O492        C502   1.280       .  A
O493       Ni498   1.911       .  S
O493        C502   1.282   1_565  A
O494        C501   1.281       .  A
O495       Ni498   1.918   1_455  S
O495        C500   1.281   1_565  A
O496        C499   1.278       .  A
Ni497      Ni498   2.393   1_445  S
C499        C622   1.467       .  S
C500        C605   1.465       .  S
C501        C612   1.469       .  S
C502        C632   1.469       .  S
C503        C585   1.556       .  S
C503        C592   1.559   1_565  S
C503        C602   1.557   1_565  S
C503        C615   1.563       .  S
C504        C562   1.559   1_545  S
C504        C575   1.566       .  S
C504        C625   1.563   1_545  S
C504        C635   1.560       .  S
O505       Ni513   1.923       .  S
O505        C515   1.284       .  A
O506       Ni513   1.920       .  S
O506        C516   1.281       .  A
O507       Ni513   1.923       .  S
O507        C517   1.280       .  A
O508       Ni513   1.918       .  S
O508        C518   1.282       .  A
O509       Ni514   1.915       .  S
O509        C518   1.278       .  A
O510       Ni514   1.911       .  S
O510        C517   1.281       .  A
O511       Ni514   1.924       .  S
O511        C516   1.285       .  A
O512       Ni514   1.921       .  S
O512        C515   1.281       .  A
Ni513      Ni514   2.388       .  S
C515        C572   1.491       .  S
C516        C735   1.490       .  S
C517        C805   1.468       .  S
C518        C645   1.467       .  S
O519       Ni527   1.915       .  S
O519        C529   1.281       .  A
O520       Ni527   1.922       .  S
O520        C530   1.283       .  A
O521       Ni527   1.916       .  S
O521        C531   1.280       .  A
O522       Ni527   1.910       .  S
O522        C532   1.280       .  A
O523       Ni528   1.931       .  S
O523        C532   1.283       .  A
O524       Ni528   1.931       .  S
O524        C531   1.285       .  A
O525       Ni528   1.922       .  S
O525        C530   1.281       .  A
O526       Ni528   1.932       .  S
O526        C529   1.282       .  A
Ni527      Ni528   2.388       .  S
C529        C815   1.476       .  S
C530        C655   1.479       .  S
C531        C565   1.484       .  S
C532        C725   1.479       .  S
O533       Ni541   1.908       .  S
O533        C543   1.281       .  A
O534       Ni541   1.921       .  S
O534        C544   1.281       .  A
O535       Ni541   1.923       .  S
O535        C545   1.283       .  A
O536       Ni541   1.917       .  S
O536        C546   1.280       .  A
O537       Ni542   1.929       .  S
O537        C546   1.284       .  A
O538       Ni542   1.925       .  S
O538        C545   1.282       .  A
O539       Ni542   1.913       .  S
O539        C544   1.281       .  A
O540       Ni542   1.925       .  S
O540        C543   1.281       .  A
Ni541      Ni542   2.390       .  S
C543        C745   1.473       .  S
C544        C595   1.477       .  S
C545        C675   1.479       .  S
C546        C832   1.476       .  S
O547       Ni555   1.907       .  S
O547        C557   1.279       .  A
O548       Ni555   1.910       .  S
O548        C558   1.277       .  A
O549       Ni555   1.921       .  S
O549        C559   1.282       .  A
O550       Ni555   1.924       .  S
O550        C560   1.286       .  A
O551       Ni556   1.912       .  S
O551        C560   1.278       .  A
O552       Ni556   1.913       .  S
O552        C559   1.282       .  A
O553       Ni556   1.918       .  S
O553        C558   1.282       .  A
O554       Ni556   1.924       .  S
O554        C557   1.281       .  A
Ni555      Ni556   2.389       .  S
C557        C665   1.466       .  S
C558        C825   1.463       .  S
C559        C755   1.485       .  S
C560        C582   1.485       .  S
C561        C562   1.412       .  A
C561        C566   1.404       .  A
C561        H568   1.079       .  S
C562        C563   1.422       .  A
C563        C564   1.398       .  A
C563        F570   1.358       .  S
C564        C565   1.399       .  A
C564        H569   1.083       .  S
C565        C566   1.408       .  A
C566        F567   1.357       .  S
C571        C572   1.408       .  A
C571        C576   1.406       .  A
C571        H578   1.083       .  S
C572        C573   1.404       .  A
C573        C574   1.393       .  A
C573        F580   1.358       .  S
C574        C575   1.419       .  A
C574        H579   1.080       .  S
C575        C576   1.416       .  A
C576        F577   1.356       .  S
C581        C582   1.397       .  A
C581        C586   1.391       .  A
C581        H588   1.083       .  S
C582        C583   1.411       .  A
C583        C584   1.404       .  A
C583        F590   1.357       .  S
C584        C585   1.412       .  A
C584        H589   1.083       .  S
C585        C586   1.423       .  A
C586        F587   1.357       .  S
C591        C592   1.416       .  A
C591        C596   1.393       .  A
C591        H598   1.084       .  S
C592        C593   1.420       .  A
C593        C594   1.403       .  A
C593        F600   1.355       .  S
C594        C595   1.403       .  A
C594        H599   1.084       .  S
C595        C596   1.401       .  A
C596        F597   1.358       .  S
C601        C602   1.415       .  A
C601        C606   1.398       .  A
C601        H608   1.078       .  S
C602        C603   1.421       .  A
C603        C604   1.396       .  A
C603        F610   1.356       .  S
C604        C605   1.396       .  A
C604        H609   1.083       .  S
C605        C606   1.400       .  A
C606        F607   1.358       .  S
C611        C612   1.396       .  A
C611        C616   1.394   1_565  A
C611        H618   1.084   1_565  S
C612        C613   1.403       .  A
C613        C614   1.402       .  A
C613        F620   1.357       .  S
C614        C615   1.415       .  A
C614        H619   1.081       .  S
C615        C616   1.422   1_565  A
C616        F617   1.357       .  S
C621        C622   1.398       .  A
C621        C626   1.399       .  A
C621        H628   1.083       .  S
C622        C623   1.398       .  A
C623        C624   1.397       .  A
C623        F630   1.358       .  S
C624        C625   1.418       .  A
C624        H629   1.083       .  S
C625        C626   1.420       .  A
C626        F627   1.354       .  S
C631        C632   1.394       .  A
C631        C636   1.390       .  A
C631        H638   1.084   1_545  S
C632        C633   1.405       .  A
C633        C634   1.406       .  A
C633        F640   1.357       .  S
C634        C635   1.415       .  A
C634        H639   1.083       .  S
C635        C636   1.422       .  A
C636        F637   1.357   1_545  S
C641        C642   1.419       .  A
C641        C646   1.389       .  A
C641        H648   1.084       .  S
C642        C643   1.422       .  A
C643        C644   1.405       .  A
C643        F650   1.353       .  S
C644        C645   1.401       .  A
C644        H649   1.083       .  S
C645        C646   1.394       .  A
C646        F647   1.358       .  S
C651        C652   1.421       .  A
C651        C656   1.396       .  A
C651        H658   1.078       .  S
C652        C653   1.421       .  A
C653        C654   1.404       .  A
C653        F660   1.357       .  S
C654        C655   1.402       .  A
C654        H659   1.083       .  S
C655        C656   1.399       .  A
C656        F657   1.358       .  S
C661        C662   1.416       .  A
C661        C666   1.405       .  A
C661        H668   1.078       .  S
C662        C663   1.421       .  A
C663        C664   1.389       .  A
C663        F670   1.358       .  S
C664        C665   1.394       .  A
C664        H669   1.084       .  S
C665        C666   1.403       .  A
C666        F667   1.357       .  S
C671        C672   1.418       .  A
C671        C676   1.407       .  A
C671        H678   1.083       .  S
C672        C673   1.433       .  A
C673        C674   1.394       .  A
C673        F680   1.355       .  S
C674        C675   1.392       .  A
C674        H679   1.085       .  S
C675        C676   1.404       .  A
C676        F677   1.357       .  S
C681        C682   1.397       .  A
C681        C686   1.384       .  A
C681        H688   1.083       .  S
C682        C683   1.413       .  A
C683        C684   1.411       .  A
C683        F690   1.357       .  S
C684        C685   1.413       .  A
C684        H689   1.078       .  S
C685        C686   1.423       .  A
C686        F687   1.357       .  S
C691        C692   1.403       .  A
C691        C696   1.409       .  A
C691        H698   1.083       .  S
C692        C693   1.388       .  A
C693        C694   1.384       .  A
C693        F700   1.359       .  S
C694        C695   1.425       .  A
C694        H699   1.077       .  S
C695        C696   1.419       .  A
C696        F697   1.357       .  S
C701        C702   1.397       .  A
C701        C706   1.384       .  A
C701        H708   1.083       .  S
C702        C703   1.411       .  A
C703        C704   1.406       .  A
C703        F710   1.357       .  S
C704        C705   1.411       .  A
C704        H709   1.080       .  S
C705        C706   1.422       .  A
C706        F707   1.357       .  S
C711        C712   1.403       .  A
C711        C716   1.409       .  A
C711        H718   1.083       .  S
C712        C713   1.387       .  A
C713        C714   1.383       .  A
C713        F720   1.359       .  S
C714        C715   1.425       .  A
C714        H719   1.076       .  S
C715        C716   1.420       .  A
C716        F717   1.357       .  S
C721        C722   1.416       .  A
C721        C726   1.405       .  A
C721        H728   1.078       .  S
C722        C723   1.420       .  A
C723        C724   1.393       .  A
C723        F730   1.358       .  S
C724        C725   1.399       .  A
C724        H729   1.083       .  S
C725        C726   1.405       .  A
C726        F727   1.357       .  S
C731        H738   1.083       .  S
C732        C733   1.426       .  A
C733        C734   1.394       .  A
C733        F740   1.356       .  S
C734        C735   1.399       .  A
C734        H739   1.083       .  S
C735        C736   1.410       .  A
C741        C742   1.416   1_554  A
C741        C746   1.403   1_554  A
C742        C743   1.419       .  A
C743        C744   1.392       .  A
C743        F750   1.358       .  S
C744        C745   1.398       .  A
C744        H749   1.083       .  S
C745        C746   1.403       .  A
C746        F747   1.357       .  S
C751        C752   1.416       .  A
C751        C756   1.389       .  A
C751        H758   1.080       .  S
C752        C753   1.416       .  A
C753        C754   1.404       .  A
C754        C755   1.407       .  A
C754        H759   1.083       .  S
C755        C756   1.404       .  A
C756        F757   1.358       .  S
C761        C762   1.400       .  A
C761        C766   1.401       .  A
C761        H768   1.084       .  S
C762        C763   1.398       .  A
C763        C764   1.393       .  A
C763        F770   1.358       .  S
C764        C765   1.417       .  A
C764        H769   1.080       .  S
C765        C766   1.420       .  A
C766        F767   1.356       .  S
C771        C772   1.396       .  A
C771        C776   1.396       .  A
C771        H778   1.084       .  S
C772        C773   1.398       .  A
C773        C774   1.396       .  A
C773        F780   1.358       .  S
C774        C775   1.415       .  A
C774        H779   1.079       .  S
C775        C776   1.421       .  A
C776        F777   1.358       .  S
C781        C782   1.396       .  A
C781        C786   1.397       .  A
C781        H788   1.083       .  S
C782        C783   1.398       .  A
C783        C784   1.396       .  A
C783        F790   1.358       .  S
C784        C785   1.416       .  A
C784        H789   1.078   1_556  S
C785        C786   1.420       .  A
C786        F787   1.357       .  S
C791        C792   1.400       .  A
C791        C796   1.401       .  A
C791        H798   1.084       .  S
C792        C793   1.397       .  A
C793        C794   1.395       .  A
C793        F800   1.358       .  S
C794        C795   1.418       .  A
C794        H799   1.080       .  S
C795        C796   1.420       .  A
C796        F797   1.356       .  S
C801        C802   1.414   1_554  A
C801        C806   1.408       .  A
C801        H808   1.080       .  S
C802        C803   1.421       .  A
C803        C804   1.386       .  A
C803        F810   1.358   1_545  S
C804        C805   1.392       .  A
C804        H809   1.084       .  S
C805        C806   1.405   1_556  A
C806        F807   1.357       .  S
C811        C812   1.415       .  A
C811        C816   1.413       .  A
C812        C813   1.422       .  A
C813        C814   1.388       .  A
C813        F820   1.358       .  S
C814        C815   1.392       .  A
C814        H819   1.084       .  S
C815        C816   1.408       .  A
C816        F817   1.357       .  S
C821        C822   1.414       .  A
C821        C826   1.405       .  A
C821        H828   1.079       .  S
C822        C823   1.423       .  A
C823        C824   1.386       .  A
C824        C825   1.390       .  A
C825        C826   1.404       .  A
C826        F827   1.357       .  S
C831        C832   1.393       .  A
C831        C836   1.395       .  A
C831        H838   1.084       .  S
C832        C833   1.403       .  A
C834        H839   1.082       .  S
C835        C836   1.431       .  A
C836        F837   1.356       .  S
C841        C842   1.394   1_565  A
C841        C846   1.378       .  A
C841        H848   1.083       .  S
C842        C843   1.411       .  A
C843        C844   1.407       .  A
C843        F850   1.357       .  S
C844        C845   1.411       .  A
C844        H849   1.080       .  S
C845        C846   1.422   1_545  A
C846        F847   1.358       .  S
C851        C852   1.426   1_545  A
C851        C856   1.383       .  A
C851        H858   1.079       .  S
C852        C853   1.417       .  A
C853        C854   1.411       .  A
C853        F860   1.357       .  S
C854        C855   1.406       .  A
C854        H859   1.083       .  S
C855        C856   1.388   1_565  A
C856        F857   1.359       .  S
C861        C862   1.409       .  A
C861        C866   1.411       .  A
C861        H868   1.083       .  S
C862        C863   1.399   1_565  A
C863        C864   1.390       .  A
C863        F870   1.358       .  S
C864        C865   1.423   1_545  A
C864        H869   1.080       .  S
C865        C866   1.417       .  A
C866        F867   1.356       .  S
C871        C872   1.420   1_565  A
C871        C876   1.389       .  A
C871        H878   1.081       .  S
C872        C873   1.419       .  A
C873        C874   1.412       .  A
C873        F880   1.356       .  S
C874        C875   1.409       .  A
C874        H879   1.083       .  S
C875        C876   1.401   1_545  A
C876        F877   1.358       .  S
