geometry optimzed in LAMMPS
_audit_creation_date              2020-11-30 
_audit_creation_method            'lammps2cif' 
_symmetry_space_group_name_H-M    'P1' 
_symmetry_Int_Tables_number       1 
_symmetry_cell_setting            triclinic 
loop_ 
_symmetry_equiv_pos_as_xyz 
  x,y,z 
_cell_length_a                    35.47124802 
_cell_length_b                    34.84327150241541 
_cell_length_c                    37.5425096637199 
_cell_angle_alpha                 89.98762796858077 
_cell_angle_beta                  89.99154817072645 
_cell_angle_gamma                 90.00067464214604 
loop_ 
_atom_site_label 
_atom_site_type_symbol 
_atom_site_fract_x 
_atom_site_fract_y 
_atom_site_fract_z 
_atom_site_charge 
O1          O  0.25437060  0.18621994  0.39938866    -0.85000
O2          O  0.25305497  0.18582271  0.60065839    -0.85200
O3          O  0.31504254  0.13760638  0.49944747    -0.86800
O4          O  0.18992329  0.13807746  0.49906231    -0.85600
O5          O  0.14433409  0.18515211  0.49899642    -0.85200
O6          O  0.36089634  0.18440665  0.49984776    -0.86500
O7          O  0.25232915  0.13809210  0.55842480    -0.85000
O8          O  0.25462641  0.13818204  0.44133760    -0.84600
Zr9        Zr  0.25261239  0.16887073  0.49982463     2.84300
O10         O  0.21432665  0.20824031  0.53532997    -1.06600
O11         O  0.29096499  0.20844320  0.46464865    -1.07300
C12         C  0.25520010  0.15071012  0.40896591     1.08100
C13         C  0.25273262  0.15040780  0.59088463     1.08100
C14         C  0.34983914  0.14904562  0.49960626     1.11000
C15         C  0.15518920  0.14972357  0.49881537     1.08800
H16         H  0.30681732  0.19200648  0.55063130     0.34400
O17         O  0.29126345  0.20784611  0.53548226    -1.27500
H18         H  0.19868738  0.19262459  0.44899180     0.34100
O19         O  0.21417172  0.20830498  0.46434023    -1.29200
O20         O  0.25442335  0.30874533  0.60077875    -0.85000
O21         O  0.25269500  0.30985228  0.40006750    -0.86500
O22         O  0.35951229  0.24805554  0.55950631    -0.85100
O23         O  0.14632177  0.24626516  0.55913956    -0.85100
O24         O  0.14621909  0.24897760  0.44089305    -0.84800
O25         O  0.35893482  0.24595036  0.44062734    -0.84600
O26         O  0.31565786  0.35682753  0.50019693    -0.85000
O27         O  0.19054421  0.35704749  0.49926297    -0.84500
O28         O  0.36118066  0.30968038  0.50012350    -0.85500
O29         O  0.14472354  0.31020851  0.49936421    -0.84700
O30         O  0.31219915  0.24789117  0.60129428    -0.85100
O31         O  0.31173882  0.24720694  0.39871378    -0.84800
O32         O  0.19337316  0.24853313  0.39894178    -0.84500
O33         O  0.19348600  0.24591031  0.60109118    -0.84900
O34         O  0.25442310  0.35674725  0.55880403    -0.85200
O35         O  0.25299674  0.35767015  0.44219964    -0.86500
Zr36       Zr  0.25289236  0.24727724  0.57033859     2.83100
Zr37       Zr  0.25269662  0.24782551  0.42976794     2.83500
Zr38       Zr  0.32979933  0.24714580  0.50013544     2.84100
Zr39       Zr  0.17592905  0.24762321  0.49997845     2.83400
Zr40       Zr  0.25306002  0.32604924  0.50027226     2.84200
O41         O  0.21442052  0.28703686  0.46475106    -1.07100
O42         O  0.29141214  0.28646842  0.53554367    -1.06600
C43         C  0.25499238  0.34423397  0.59118443     1.08100
C44         C  0.25284668  0.34531430  0.40977736     1.10700
C45         C  0.34698090  0.24836436  0.59192443     1.08300
C46         C  0.15875421  0.24563770  0.59153384     1.08600
C47         C  0.15865441  0.24914524  0.40849906     1.08200
C48         C  0.34644648  0.24619764  0.40821567     1.07800
C49         C  0.35035208  0.34510715  0.50022628     1.08200
C50         C  0.15577356  0.34555518  0.49903818     1.07700
H51         H  0.30706887  0.30244639  0.44959130     0.34400
O52         O  0.29144745  0.28669504  0.46475629    -1.28200
H53         H  0.19882649  0.30262949  0.55095024     0.34400
O54         O  0.21433691  0.28684687  0.53570891    -1.29600
N55         N  0.06123350  0.49746976  0.50106624    -0.35100
N56         N  0.50259252  0.05653739  0.49949629    -0.55700
N57         N  0.44455383  0.49704266  0.50245638    -0.35100
N58         N  0.50299585  0.43790529  0.49962364    -0.55700
C59         C  0.08229858  0.02890944  0.49363547     0.28500
C60         C  0.08261556  0.46615448  0.49395810     0.28500
C61         C  0.42302251  0.02832130  0.49560709     0.28500
C62         C  0.42320214  0.46560139  0.49579236     0.28500
C63         C  0.03332380  0.07922831  0.50411243     0.37100
C64         C  0.47188296  0.07896348  0.50497220     0.37100
C65         C  0.03388916  0.41539691  0.50408000     0.37100
C66         C  0.47244143  0.41521014  0.50488539     0.37100
C67         C  0.11765099  0.01739952  0.48193909    -0.20400
C68         C  0.11801274  0.47786970  0.48254426    -0.20400
C69         C  0.38750507  0.01657298  0.48460058    -0.20400
C70         C  0.38749951  0.47707785  0.48505739    -0.20400
C71         C  0.02198888  0.11629921  0.51215388    -0.21400
C72         C  0.48316224  0.11610566  0.51277345    -0.21400
C73         C  0.02280819  0.37814298  0.51176502    -0.21400
C74         C  0.48396004  0.37803049  0.51225417    -0.21400
C75         C  0.07128875  0.06761313  0.49891125    -0.16800
C76         C  0.07178237  0.42737402  0.49912118    -0.16800
C77         C  0.43436309  0.42691191  0.50078760    -0.16800
C78         C  0.43388388  0.06709313  0.50059881    -0.16800
H79         H  0.14102046  0.03557295  0.47423217     0.16100
H80         H  0.14157629  0.45983527  0.47509430     0.16100
H81         H  0.36386028  0.03457743  0.47732368     0.16100
H82         H  0.36387483  0.45889715  0.47811055     0.16100
H83         H  0.03980592  0.14101975  0.51676697     0.14400
H84         H  0.46529278  0.14066739  0.51790849     0.14400
H85         H  0.04078886  0.35349601  0.51615932     0.14400
H86         H  0.46625787  0.35327892  0.51713373     0.14400
H87         H  0.03518412  0.49740084  0.51366290     0.27700
H88         H  0.47086009  0.49714970  0.51456994     0.27700
O89         O  0.49332001  0.43769940  0.89983667    -0.85000
O90         O  0.49209749  0.43725314  0.10033833    -0.85200
O91         O  0.05575528  0.38960869  0.00002284    -0.86800
O92         O  0.43088945  0.38993380  0.00080076    -0.85600
O93         O  0.38524608  0.43693228  0.00038976    -0.85200
O94         O  0.10146772  0.43654187  0.00040655    -0.86500
O95         O  0.49175969  0.38943437  0.05821132    -0.85000
O96         O  0.49350803  0.38968461  0.94180931    -0.84600
Zr97       Zr  0.49339269  0.42073322  0.00006778     2.84300
O98         O  0.45506568  0.46014908  0.03533138    -1.06600
O99         O  0.03189236  0.46004513  0.96470027    -1.07300
C100        C  0.49335016  0.40222775  0.90945380     1.08100
C101        C  0.49130150  0.40180393  0.09061757     1.08100
C102        C  0.09048318  0.40118341  0.00020786     1.11000
C103        C  0.39618698  0.40157214  0.00080575     1.08800
H104        H  0.04747629  0.44389756  0.05099025     0.34400
O105        O  0.03201178  0.45972534  0.03574765    -1.27500
H106        H  0.43929670  0.44421335  0.94933948     0.34100
O107        O  0.45490950  0.45996854  0.96450518    -1.29200
O108        O  0.49421950  0.06077358  0.10067157    -0.85000
O109        O  0.49162472  0.06073434  0.89937389    -0.86500
O110        O  0.10008934  0.50010198  0.05928614    -0.85100
O111        O  0.38687148  0.49746735  0.05909196    -0.85100
O112        O  0.38697336  0.50006460  0.94068501    -0.84800
O113        O  0.10018118  0.49756857  0.94128485    -0.84600
O114        O  0.05602020  0.10886701  0.00030617    -0.85000
O115        O  0.43111869  0.10879855  0.00108702    -0.84500
O116        O  0.10161108  0.06179647  0.00046631    -0.85500
O117        O  0.38543286  0.06181641  0.00050820    -0.84700
O118        O  0.05284909  0.50000298  0.10115875    -0.85100
O119        O  0.05310465  0.49864208  0.89925494    -0.84800
O120        O  0.43427224  0.49988380  0.89887817    -0.84500
O121        O  0.43400853  0.49794062  0.10106108    -0.84900
O122        O  0.49430390  0.10881460  0.05872580    -0.85200
O123        O  0.49150436  0.10856056  0.94151055    -0.86500
Zr124      Zr  0.49346568  0.49908455  0.07039815     2.83100
Zr125      Zr  0.49350304  0.49936388  0.92985082     2.83500
Zr126      Zr  0.07033107  0.49913684  0.00023522     2.84100
Zr127      Zr  0.41661087  0.49933865  0.99997098     2.83400
Zr128      Zr  0.49352953  0.07787869  0.00018791     2.84200
O129        O  0.45509411  0.03858534  0.96474843    -1.07100
O130        O  0.03186403  0.03842785  0.03557682    -1.06600
C131        C  0.49438538  0.09627797  0.09112892     1.08100
C132        C  0.49089459  0.09617791  0.90906597     1.10700
C133        C  0.08759630  0.50037978  0.09165892     1.08300
C134        C  0.39928499  0.49716405  0.09150847     1.08600
C135        C  0.39950837  0.50015852  0.90829133     1.08200
C136        C  0.08780767  0.49763549  0.90888057     1.07800
C137        C  0.09072383  0.09719545  0.00049812     1.08200
C138        C  0.39641218  0.09717103  0.00095627     1.07700
H139        H  0.04763202  0.05447454  0.94935946     0.34400
O140        O  0.03210707  0.03868254  0.96458635    -1.28200
H141        H  0.43941955  0.05420666  0.05089186     0.34400
O142        O  0.45496795  0.03852234  0.03560426    -1.29600
N143        N  0.18511076  0.24922890  0.99747752    -0.35100
N144        N  0.24361231  0.18955119  0.00139065    -0.55700
N145        N  0.30201798  0.24930981  0.00090387    -0.35100
N146        N  0.24341771  0.30900153  0.00111967    -0.55700
C147        C  0.16313204  0.21780221  0.00225734     0.28500
C148        C  0.16302130  0.28060512  0.00209332     0.28500
C149        C  0.32445626  0.21789846  0.00267044     0.28500
C150        C  0.32437407  0.28078123  0.00256254     0.28500
C151        C  0.21294080  0.16653051  0.99889966     0.37100
C152        C  0.27440814  0.16655488  0.99999287     0.37100
C153        C  0.21270474  0.33198208  0.99867892     0.37100
C154        C  0.27418789  0.33203945  0.99977198     0.37100
C155        C  0.12638821  0.22944036  0.00898871    -0.20400
C156        C  0.12631427  0.26887416  0.00887223    -0.20400
C157        C  0.36177224  0.22964851  0.00523375    -0.20400
C158        C  0.36172151  0.26912386  0.00516190    -0.20400
C159        C  0.22434392  0.12856294  0.99639232    -0.21400
C160        C  0.26310402  0.12856962  0.99712338    -0.21400
C161        C  0.22405169  0.36997479  0.99625506    -0.21400
C162        C  0.26281818  0.37001647  0.99697233    -0.21400
C163        C  0.17476847  0.17885178  0.00021091    -0.16800
C164        C  0.17455078  0.31958137  0.99994839    -0.16800
C165        C  0.31243010  0.31972491  0.00122504    -0.16800
C166        C  0.31261483  0.17893075  0.00142247    -0.16800
H167        H  0.10207013  0.21141247  0.01382863     0.16100
H168        H  0.10193164  0.28683836  0.01361804     0.16100
H169        H  0.38661387  0.21169801  0.00690994     0.16100
H170        H  0.38652166  0.28713832  0.00677690     0.16100
H171        H  0.20659375  0.10339110  0.99437132     0.14400
H172        H  0.28091619  0.10340251  0.99559274     0.14400
H173        H  0.20626474  0.39512777  0.99430629     0.14400
H174        H  0.28059362  0.39521573  0.99550613     0.14400
H175        H  0.21265506  0.24924131  0.98845528     0.27700
H176        H  0.27323826  0.24928416  0.99756925     0.27700
C177        C  0.03820965  0.25134503  0.27409911     0.88000
C178        C  0.03554793  0.21603155  0.24985632    -0.52300
C179        C  0.50283633  0.21480279  0.23063304     0.10900
C180        C  0.47581946  0.24844811  0.23780050     0.21900
C181        C  0.03282783  0.28585748  0.24929415    -0.53000
C182        C  0.50015366  0.28403245  0.23004754     0.11000
C183        C  0.50302779  0.25017035  0.29724257    -0.52500
C184        C  0.47046958  0.24859613  0.27849743     0.11600
H185        H  0.05801726  0.19507889  0.24691653     0.16100
H186        H  0.44918998  0.24720637  0.22224380     0.01800
H187        H  0.05361391  0.30847645  0.24594846     0.16400
H188        H  0.50377086  0.25038769  0.32622111     0.16200
C189        C  0.20799464  0.49882059  0.22619256     0.88000
C190        C  0.21090263  0.46332212  0.25018900    -0.52300
C191        C  0.24359446  0.46221038  0.26940399     0.10900
C192        C  0.27043034  0.49602163  0.26239457     0.21900
C193        C  0.21306094  0.03308476  0.25132667    -0.53000
C194        C  0.24574524  0.03136358  0.27052334     0.11000
C195        C  0.24310982  0.49803286  0.20301147    -0.52500
C196        C  0.27570560  0.49652044  0.22168704     0.11600
H197        H  0.18845967  0.44235356  0.25321972     0.16100
H198        H  0.29709244  0.49481439  0.27790635     0.01800
H199        H  0.19210374  0.05549928  0.25487430     0.16400
H200        H  0.24231999  0.49853467  0.17403619     0.16200
C201        C  0.03802615  0.24849890  0.72607734     0.88000
C202        C  0.03543969  0.28370381  0.75044604    -0.52300
C203        C  0.50299267  0.28460719  0.76997224     0.10900
C204        C  0.47604439  0.25088984  0.76297123     0.21900
C205        C  0.03304785  0.21388982  0.75086784    -0.53000
C206        C  0.50064838  0.21543490  0.77040203     0.11000
C207        C  0.50262471  0.24966751  0.70328139    -0.52500
C208        C  0.47023705  0.25091249  0.72232697     0.11600
H209        H  0.05785015  0.30472984  0.75333704     0.16100
H210        H  0.44958597  0.25191459  0.77880985     0.01800
H211        H  0.05397940  0.19137117  0.75396342     0.16400
H212        H  0.50306200  0.24944078  0.67429903     0.16200
C213        C  0.20869971  0.49576942  0.77447788     0.88000
C214        C  0.21080078  0.03027190  0.74944608    -0.52300
C215        C  0.24323031  0.03129361  0.72982113     0.10900
C216        C  0.27061352  0.49801354  0.73742975     0.21900
C217        C  0.21392114  0.46071559  0.75030237    -0.53000
C218        C  0.24628028  0.46224155  0.73060994     0.11000
C219        C  0.24410304  0.49764940  0.79718286    -0.52500
C220        C  0.27643344  0.49879646  0.77806464     0.11600
H221        H  0.18811889  0.05094917  0.74630225     0.16100
H222        H  0.29705655  0.49895186  0.72156330     0.01800
H223        H  0.19309081  0.43805470  0.74751320     0.16400
H224        H  0.24370864  0.49790547  0.82616837     0.16200
C225        C  0.17438977  0.50033782  0.20387464    -0.17000
C226        C  0.15276357  0.50104943  0.17927322     0.07100
C227        C  0.13210038  0.50123880  0.14735945     0.08900
C228        C  0.11398969  0.50099385  0.12032296    -0.17900
C229        C  0.37283780  0.49596160  0.12019413    -0.17000
C230        C  0.35466395  0.49523782  0.14723796     0.07100
C231        C  0.33350953  0.49497362  0.17895467     0.08900
C232        C  0.31075521  0.49537265  0.20268883    -0.17900
C233        C  0.48976248  0.37400188  0.11869663    -0.17000
C234        C  0.48893092  0.35293406  0.14411906     0.07100
C235        C  0.48963939  0.32970569  0.17486043     0.08900
C236        C  0.49274329  0.30965744  0.20082128    -0.17900
C237        C  0.49429276  0.12384485  0.11950061    -0.17000
C238        C  0.49414854  0.14444035  0.14529516     0.07100
C239        C  0.49489702  0.16745954  0.17621566     0.08900
C240        C  0.49727216  0.18794316  0.20197157    -0.17900
C241        C  0.11976394  0.37230942  0.00027111    -0.11800
C242        C  0.14493457  0.34875077  0.00020872    -0.13300
C243        C  0.34185509  0.34906468  0.00124822    -0.11800
C244        C  0.36690323  0.37273794  0.00114422    -0.13300
C245        C  0.36715621  0.12601062  0.00134933    -0.11800
C246        C  0.34209090  0.14965425  0.00146333    -0.13300
C247        C  0.12008169  0.12601020  0.00061782    -0.11800
C248        C  0.14522754  0.14960283  0.00054030    -0.13300
C249        C  0.37322454  0.50043060  0.87945102    -0.17000
C250        C  0.35535197  0.50053827  0.85222285     0.07100
C251        C  0.33448030  0.50048487  0.82034641     0.08900
C252        C  0.31171971  0.50004234  0.79663027    -0.17900
C253        C  0.17537896  0.49461514  0.79720389    -0.17000
C254        C  0.15372348  0.49450907  0.82179567     0.07100
C255        C  0.13273209  0.49530507  0.85350804     0.08700
C256        C  0.11433770  0.49638845  0.88035322    -0.17900
C257        C  0.49351824  0.18944945  0.79946119    -0.17000
C258        C  0.49028223  0.16896614  0.82514141     0.07100
C259        C  0.48907079  0.14523079  0.85558071     0.08900
C260        C  0.48947935  0.12397172  0.88090829    -0.17900
C261        C  0.49308890  0.37466269  0.88125849    -0.17000
C262        C  0.49331119  0.35403195  0.85558453     0.07100
C263        C  0.49474258  0.33122888  0.82469008     0.08900
C264        C  0.49751151  0.31109992  0.79881029    -0.17900
C265        C  0.37324554  0.24950480  0.62086475    -0.17000
C266        C  0.39108006  0.25065025  0.64814568     0.07100
C267        C  0.41205388  0.25162711  0.68002172     0.08900
C268        C  0.43491596  0.25175081  0.70369824    -0.17900
C269        C  0.13226304  0.24485462  0.62013926    -0.17000
C270        C  0.11392491  0.24488363  0.64705111     0.07100
C271        C  0.09302110  0.24579667  0.67882860     0.08900
C272        C  0.07140220  0.24702129  0.70343023    -0.17900
C273        C  0.25291636  0.12257779  0.61897189    -0.17000
C274        C  0.25262083  0.10144438  0.64435624     0.07100
C275        C  0.25114667  0.07798214  0.67491817     0.08900
C276        C  0.24845675  0.05760604  0.70069998    -0.17900
C277        C  0.25627032  0.37192896  0.61937062    -0.17000
C278        C  0.25681282  0.39301670  0.64478281     0.07100
C279        C  0.25596514  0.41633744  0.67545637     0.08900
C280        C  0.25308779  0.43643879  0.70139901    -0.17900
C281        C  0.40420839  0.09628817  0.50022617    -0.11800
C282        C  0.37909491  0.11999121  0.49982663    -0.13300
C283        C  0.10079043  0.09698971  0.49839123    -0.11800
C284        C  0.12580594  0.12080450  0.49836101    -0.13300
C285        C  0.12653940  0.37454864  0.49862554    -0.11800
C286        C  0.10145537  0.39824188  0.49866153    -0.13300
C287        C  0.40486750  0.39758814  0.50064911    -0.11800
C288        C  0.37976153  0.37391938  0.50041186    -0.13300
C289        C  0.13223354  0.25021152  0.37988442    -0.17000
C290        C  0.11414885  0.25136158  0.35286101     0.07100
C291        C  0.09347983  0.25250978  0.32098324     0.08900
C292        C  0.07180011  0.25267540  0.29642667    -0.17900
C293        C  0.37279365  0.24539663  0.37946363    -0.17000
C294        C  0.39099622  0.24519190  0.35244002     0.07100
C295        C  0.41240607  0.24574532  0.32089520     0.08900
C296        C  0.43537372  0.24684688  0.29737208    -0.17900
C297        C  0.24899492  0.43592580  0.29848629    -0.17000
C298        C  0.25153669  0.41614671  0.32466561     0.07100
C299        C  0.25273988  0.39365455  0.35584884     0.08900
C300        C  0.25295488  0.37306128  0.38161146    -0.17900
C301        C  0.25317662  0.05698543  0.29977227    -0.17000
C302        C  0.25650099  0.07741217  0.32546612     0.07100
C303        C  0.25752877  0.10141223  0.35571048     0.08900
C304        C  0.25683269  0.12294633  0.38081523    -0.17900
O305        O  0.25432538  0.68625992  0.39930317    -0.85000
O306        O  0.25302949  0.68586137  0.60063847    -0.85200
O307        O  0.31502566  0.63760626  0.49957970    -0.86800
O308        O  0.18991452  0.63813488  0.49888415    -0.85600
O309        O  0.14433558  0.68522042  0.49895123    -0.85200
O310        O  0.36088109  0.68440223  0.50010756    -0.86500
O311        O  0.25229326  0.63812414  0.55840932    -0.85000
O312        O  0.25461690  0.63824625  0.44127774    -0.84600
Zr313      Zr  0.25260720  0.66890104  0.49979774     2.84300
O314        O  0.21431445  0.70826608  0.53531919    -1.06600
O315        O  0.29100368  0.70844351  0.46462549    -1.07300
C316        C  0.25514987  0.65075470  0.40889658     1.08100
C317        C  0.25272187  0.65044215  0.59087074     1.08100
C318        C  0.34982364  0.64904023  0.49984280     1.11000
C319        C  0.15518464  0.64979088  0.49867732     1.08800
H320        H  0.30675783  0.69204520  0.55065018     0.34400
O321        O  0.29122006  0.70788079  0.53548371    -1.27500
H322        H  0.19870576  0.69269862  0.44897966     0.34100
O323        O  0.21419478  0.70836941  0.46433180    -1.29200
O324        O  0.25438413  0.80882405  0.60073829    -0.85000
O325        O  0.25265531  0.80982514  0.39999118    -0.86500
O326        O  0.35944324  0.74811164  0.55955913    -0.85100
O327        O  0.14637013  0.74629142  0.55916225    -0.85100
O328        O  0.14618099  0.74904118  0.44093881    -0.84800
O329        O  0.35906731  0.74593165  0.44075710    -0.84600
O330        O  0.31567361  0.85683903  0.50011814    -0.85000
O331        O  0.19054915  0.85710636  0.49937775    -0.84500
O332        O  0.36118816  0.80968289  0.50011396    -0.85500
O333        O  0.14472581  0.81027212  0.49950428    -0.84700
O334        O  0.31210870  0.74795420  0.60132247    -0.85100
O335        O  0.31189941  0.74729800  0.39881571    -0.84800
O336        O  0.19332887  0.74855042  0.39897739    -0.84500
O337        O  0.19351534  0.74605024  0.60112860    -0.84900
O338        O  0.25442779  0.85681785  0.55875670    -0.85200
O339        O  0.25288725  0.85763851  0.44213147    -0.86500
Zr340      Zr  0.25286241  0.74733055  0.57032341     2.83100
Zr341      Zr  0.25273431  0.74783713  0.42973269     2.83500
Zr342      Zr  0.32979176  0.74715651  0.50017376     2.84100
Zr343      Zr  0.17594252  0.74767956  0.49998026     2.83400
Zr344      Zr  0.25306462  0.82608336  0.50024079     2.84200
O345        O  0.21444909  0.78705406  0.46471891    -1.07100
O346        O  0.29140574  0.78651547  0.53554545    -1.06600
C347        C  0.25497028  0.84431294  0.59114067     1.08100
C348        C  0.25274690  0.84528342  0.40970801     1.10700
C349        C  0.34688859  0.74841083  0.59196617     1.08300
C350        C  0.15879204  0.74573493  0.59156159     1.08600
C351        C  0.15860610  0.74918733  0.40854401     1.08200
C352        C  0.34660458  0.74625078  0.40834193     1.07800
C353        C  0.35036572  0.84511198  0.50017176     1.08200
C354        C  0.15577448  0.84562125  0.49919768     1.07700
H355        H  0.30708659  0.80244903  0.44959430     0.34400
O356        O  0.29145942  0.78669992  0.46475603    -1.28200
H357        H  0.19883357  0.80269304  0.55093400     0.34400
O358        O  0.21433897  0.78690770  0.53569115    -1.29600
N359        N  0.06117520  0.99747633  0.50101557    -0.35100
N360        N  0.50261974  0.55655710  0.49943343    -0.55700
N361        N  0.44450433  0.99705004  0.50261512    -0.35100
N362        N  0.50296591  0.93794456  0.49951289    -0.55700
C363        C  0.08241564  0.52890073  0.49381090     0.28500
C364        C  0.08249954  0.96617593  0.49371552     0.28500
C365        C  0.42301017  0.52831955  0.49563784     0.28500
C366        C  0.42321760  0.96561558  0.49574287     0.28500
C367        C  0.03336569  0.57926293  0.50397470     0.37100
C368        C  0.47190615  0.57899039  0.50487287     0.37100
C369        C  0.03385568  0.91547195  0.50411610     0.37100
C370        C  0.47242594  0.91528429  0.50497894     0.37100
C371        C  0.11788162  0.51737286  0.48244012    -0.20400
C372        C  0.11778230  0.97789380  0.48200115    -0.20400
C373        C  0.38738960  0.51656731  0.48493371    -0.20400
C374        C  0.38761772  0.97708406  0.48471069    -0.20400
C375        C  0.02202627  0.61635077  0.51194898    -0.21400
C376        C  0.48318815  0.61615152  0.51259777    -0.21400
C377        C  0.02278971  0.87829481  0.51211697    -0.21400
C378        C  0.48395350  0.87818197  0.51264819    -0.21400
C379        C  0.07134360  0.56762874  0.49887539    -0.16800
C380        C  0.07173732  0.92741774  0.49906578    -0.16800
C381        C  0.43435477  0.92693919  0.50079156    -0.16800
C382        C  0.43389291  0.56709657  0.50060877    -0.16800
H383        H  0.14132625  0.53553118  0.47490873     0.16100
H384        H  0.14127036  0.95985753  0.47434504     0.16100
H385        H  0.36366114  0.53456774  0.47789487     0.16100
H386        H  0.36408037  0.95889655  0.47751914     0.16100
H387        H  0.03984101  0.64107500  0.51655445     0.14400
H388        H  0.46532170  0.64072184  0.51770712     0.14400
H389        H  0.04078223  0.85370788  0.51674882     0.14400
H390        H  0.46625590  0.85348098  0.51775734     0.14400
H391        H  0.03525078  0.99738694  0.51385838     0.27700
H392        H  0.47071740  0.99715102  0.51492838     0.27700
O393        O  0.49332098  0.93770825  0.89980959    -0.85000
O394        O  0.49200638  0.93740713  0.10041036    -0.85200
O395        O  0.05582288  0.88967162  0.00007040    -0.86800
O396        O  0.43093588  0.88984115  0.00090737    -0.85600
O397        O  0.38525093  0.93679725  0.00049826    -0.85200
O398        O  0.10151035  0.93663173  0.00040717    -0.86500
O399        O  0.49187193  0.88955212  0.05831118    -0.85000
O400        O  0.49356749  0.88970698  0.94179532    -0.84600
Zr401      Zr  0.49342866  0.92074157  0.00010483     2.84300
O402        O  0.45510281  0.96017009  0.03537166    -1.06600
O403        O  0.03190600  0.96008939  0.96470138    -1.07300
C404        C  0.49338850  0.90223612  0.90942732     1.08100
C405        C  0.49131074  0.90194944  0.09070923     1.08100
C406        C  0.09054924  0.90125777  0.00026198     1.11000
C407        C  0.39621170  0.90143496  0.00090123     1.08800
H408        H  0.04748547  0.94401154  0.05098498     0.34400
O409        O  0.03200639  0.95981797  0.03573699    -1.27500
H410        H  0.43929963  0.94415772  0.94938301     0.34100
O411        O  0.45490378  0.95993169  0.96454001    -1.29200
O412        O  0.49412945  0.56061464  0.10070014    -0.85000
O413        O  0.49168774  0.56073031  0.89934469    -0.86500
O414        O  0.10008948  0.00028027  0.05924765    -0.85100
O415        O  0.38682540  0.99747478  0.05913422    -0.85100
O416        O  0.38694617  0.00002004  0.94072537    -0.84800
O417        O  0.10016105  0.99772895  0.94125512    -0.84600
O418        O  0.05611033  0.60874213  0.00028674    -0.85000
O419        O  0.43115807  0.60881206  0.00115950    -0.84500
O420        O  0.10168528  0.56165295  0.00046385    -0.85500
O421        O  0.38544691  0.56185865  0.00061676    -0.84700
O422        O  0.05285414  0.00016331  0.10112847    -0.85100
O423        O  0.05307117  0.99871371  0.89923847    -0.84800
O424        O  0.43424140  0.99986962  0.89891283    -0.84500
O425        O  0.43397553  0.99815148  0.10108852    -0.84900
O426        O  0.49430848  0.60869177  0.05878430    -0.85200
O427        O  0.49161854  0.60854461  0.94149469    -0.86500
Zr428      Zr  0.49344374  0.99920022  0.07041836     2.83100
Zr429      Zr  0.49347623  0.99935355  0.92986605     2.83500
Zr430      Zr  0.07032156  0.99923415  0.00021442     2.84100
Zr431      Zr  0.41657448  0.99927293  0.00001314     2.83400
Zr432      Zr  0.49359091  0.57785509  0.00019397     2.84200
O433        O  0.45513118  0.53864375  0.96470537    -1.07100
O434        O  0.03189801  0.53837142  0.03557663    -1.06600
C435        C  0.49430824  0.59612446  0.09117977     1.08100
C436        C  0.49099227  0.59617137  0.90904294     1.10700
C437        C  0.08759988  0.00057117  0.09161986     1.08300
C438        C  0.39924827  0.99728650  0.09154865     1.08600
C439        C  0.39948032  0.00016278  0.90833160     1.08200
C440        C  0.08777892  0.99774457  0.90885348     1.07800
C441        C  0.09080750  0.59705480  0.00049739     1.08200
C442        C  0.39643628  0.59720800  0.00105544     1.07700
H443        H  0.04769023  0.55438729  0.94937472     0.34400
O444        O  0.03214809  0.53861057  0.96459925    -1.28200
H445        H  0.43949924  0.55415181  0.05088857     0.34400
O446        O  0.45504551  0.53847821  0.03559089    -1.29600
N447        N  0.18505575  0.74916262  0.99855714    -0.35100
N448        N  0.24362842  0.68961266  0.00119804    -0.55700
N449        N  0.30205504  0.74920080  0.99842263    -0.35100
N450        N  0.24345381  0.80876063  0.00096777    -0.55700
C451        C  0.16304513  0.71773296  0.00301510     0.28500
C452        C  0.16294088  0.78053928  0.00290824     0.28500
C453        C  0.32417021  0.71782808  0.00281640     0.28500
C454        C  0.32410937  0.78063166  0.00269001     0.28500
C455        C  0.21291557  0.66660873  0.99867166     0.37100
C456        C  0.27436553  0.66662552  0.99877262     0.37100
C457        C  0.21270479  0.83174082  0.99848774     0.37100
C458        C  0.27418263  0.83176391  0.99850353     0.37100
C459        C  0.12623942  0.72935760  0.00949223    -0.20400
C460        C  0.12617108  0.76881485  0.00941612    -0.20400
C461        C  0.36099075  0.72954418  0.00906187    -0.20400
C462        C  0.36095390  0.76899733  0.00897630    -0.20400
C463        C  0.22428383  0.62871263  0.99522568    -0.21400
C464        C  0.26303921  0.62871876  0.99531783    -0.21400
C465        C  0.22404110  0.86964429  0.99503283    -0.21400
C466        C  0.26280468  0.86965989  0.99505125    -0.21400
C467        C  0.17472909  0.67883104  0.00059731    -0.16800
C468        C  0.17452071  0.81947135  0.00042403    -0.16800
C469        C  0.31238769  0.81954381  0.00044718    -0.16800
C470        C  0.31253061  0.67889931  0.00069438    -0.16800
H471        H  0.10185332  0.71131265  0.01395948     0.16100
H472        H  0.10172490  0.78679079  0.01382033     0.16100
H473        H  0.38544411  0.71156960  0.01344091     0.16100
H474        H  0.38537795  0.78703039  0.01328006     0.16100
H475        H  0.20650914  0.60358031  0.99298655     0.14400
H476        H  0.28083793  0.60359728  0.99313825     0.14400
H477        H  0.20624355  0.89476468  0.99283117     0.14400
H478        H  0.28057853  0.89479851  0.99285357     0.14400
H479        H  0.21274444  0.74917473  0.99004340     0.27700
H480        H  0.27428953  0.74917119  0.99017424     0.27700
C481        C  0.03815608  0.75132555  0.27409681     0.88000
C482        C  0.03553169  0.71601983  0.24983456    -0.52300
C483        C  0.50279575  0.71477773  0.23058511     0.10900
C484        C  0.47574949  0.74839755  0.23776205     0.21900
C485        C  0.03276170  0.78584483  0.24930238    -0.53000
C486        C  0.50005596  0.78400774  0.23002983     0.11000
C487        C  0.50294839  0.75010626  0.29720680    -0.52500
C488        C  0.47039629  0.74852058  0.27845872     0.11600
H489        H  0.05801218  0.69507833  0.24690469     0.16100
H490        H  0.44912205  0.74714296  0.22220285     0.01800
H491        H  0.05353459  0.80847940  0.24597524     0.16400
H492        H  0.50368299  0.75032434  0.32618596     0.16200
C493        C  0.20793116  0.99878997  0.22619761     0.88000
C494        C  0.21091734  0.96326412  0.25014666    -0.52300
C495        C  0.24360155  0.96221346  0.26937489     0.10900
C496        C  0.27036027  0.99609971  0.26241492     0.21900
C497        C  0.21321852  0.53313726  0.25127302    -0.53000
C498        C  0.24589703  0.53135639  0.27047117     0.11000
C499        C  0.24305715  0.99812692  0.20302788    -0.52500
C500        C  0.27564864  0.99667168  0.22171235     0.11600
H501        H  0.18852139  0.94223882  0.25315005     0.16100
H502        H  0.29702041  0.99493556  0.27793262     0.01800
H503        H  0.19230543  0.55559576  0.25481486     0.16400
H504        H  0.24227778  0.99865786  0.17405275     0.16200
C505        C  0.03789062  0.74850690  0.72598749     0.88000
C506        C  0.03526273  0.78373011  0.75032931    -0.52300
C507        C  0.50283976  0.78458348  0.76987397     0.10900
C508        C  0.47595149  0.75079848  0.76292933     0.21900
C509        C  0.03301870  0.71390891  0.75081019    -0.53000
C510        C  0.50063257  0.71539587  0.77033445     0.11000
C511        C  0.50243944  0.74958443  0.70319563    -0.52500
C512        C  0.47008330  0.75077000  0.72229677     0.11600
H513        H  0.05763719  0.80480274  0.75317604     0.16100
H514        H  0.44951462  0.75177548  0.77880242     0.01800
H515        H  0.05399235  0.69142800  0.75388711     0.16400
H516        H  0.50282988  0.74933356  0.67421269     0.16200
C517        C  0.20879317  0.99557391  0.77453038     0.88000
C518        C  0.21094986  0.53051804  0.74947133    -0.52300
C519        C  0.24339701  0.53136989  0.72986156     0.10900
C520        C  0.27066411  0.99813840  0.73743443     0.21900
C521        C  0.21422445  0.96049513  0.75042877    -0.53000
C522        C  0.24654900  0.96219016  0.73069646     0.11000
C523        C  0.24419734  0.99775447  0.79720758    -0.52500
C524        C  0.27650621  0.99907387  0.77806574     0.11600
H525        H  0.18839371  0.55134030  0.74634445     0.16100
H526        H  0.29708901  0.99921546  0.72154830     0.01800
H527        H  0.19351524  0.93771459  0.74767433     0.16400
H528        H  0.24382042  0.99807530  0.82619275     0.16200
C529        C  0.17433991  0.00026322  0.20386121    -0.17000
C530        C  0.15274544  0.00103778  0.17923737     0.07100
C531        C  0.13211011  0.00136189  0.14731019     0.08900
C532        C  0.11400044  0.00119524  0.12027426    -0.17900
C533        C  0.37280981  0.99611019  0.12024557    -0.17000
C534        C  0.35463516  0.99541973  0.14729049     0.07100
C535        C  0.33347047  0.99519634  0.17900151     0.08900
C536        C  0.31070628  0.99559409  0.20272668    -0.17900
C537        C  0.48976634  0.87416127  0.11879991    -0.17000
C538        C  0.48890923  0.85305986  0.14419770     0.07100
C539        C  0.48956707  0.82975569  0.17489092     0.08900
C540        C  0.49263733  0.80965278  0.20081935    -0.17900
C541        C  0.49413892  0.62366380  0.11957130    -0.17000
C542        C  0.49397396  0.64425878  0.14536557     0.07100
C543        C  0.49476460  0.66732216  0.17625715     0.08900
C544        C  0.49719806  0.68786177  0.20197096    -0.17900
C545        C  0.11984009  0.87236268  0.00045011    -0.11800
C546        C  0.14495218  0.84872019  0.00053949    -0.13300
C547        C  0.34186027  0.84886899  0.00090598    -0.11800
C548        C  0.36692707  0.87254936  0.00109667    -0.13300
C549        C  0.36716343  0.62605380  0.00135373    -0.11800
C550        C  0.34204279  0.64964898  0.00119029    -0.13300
C551        C  0.12015688  0.62587153  0.00069671    -0.11800
C552        C  0.14524143  0.64952886  0.00075669    -0.13300
C553        C  0.37319991  0.00058993  0.87949357    -0.17000
C554        C  0.35535494  0.00089916  0.85225180     0.07100
C555        C  0.33452984  0.00101561  0.82034967     0.08900
C556        C  0.31179275  0.00055258  0.79661449    -0.17900
C557        C  0.17548639  0.99427492  0.79726947    -0.17000
C558        C  0.15379585  0.99420543  0.82183452     0.07100
C559        C  0.13273599  0.99516805  0.85350396     0.08700
C560        C  0.11430541  0.99640975  0.88032261    -0.17900
C561        C  0.49356443  0.68937913  0.79938073    -0.17000
C562        C  0.49036121  0.66889446  0.82506336     0.07100
C563        C  0.48917432  0.64519033  0.85552576     0.08900
C564        C  0.48958982  0.62396427  0.88087898    -0.17900
C565        C  0.49314129  0.87466179  0.88121468    -0.17000
C566        C  0.49333916  0.85404056  0.85552122     0.07100
C567        C  0.49469235  0.83122715  0.82461228     0.08900
C568        C  0.49738598  0.81108086  0.79872735    -0.17900
C569        C  0.37312035  0.74947419  0.62091372    -0.17000
C570        C  0.39090496  0.75051180  0.64821667     0.07100
C571        C  0.41184443  0.75139547  0.68009834     0.08900
C572        C  0.43473026  0.75151814  0.70374299    -0.17900
C573        C  0.13229687  0.74498476  0.62015866    -0.17000
C574        C  0.11392542  0.74502842  0.64704773     0.07100
C575        C  0.09293697  0.74591858  0.67877226     0.08900
C576        C  0.07125762  0.74709317  0.70332642    -0.17900
C577        C  0.25299832  0.62261145  0.61896815    -0.17000
C578        C  0.25282360  0.60148125  0.64436192     0.07100
C579        C  0.25145257  0.57802326  0.67494017     0.08900
C580        C  0.24875809  0.55766018  0.70073588    -0.17900
C581        C  0.25625998  0.87201620  0.61932676    -0.17000
C582        C  0.25687033  0.89310292  0.64474261     0.07100
C583        C  0.25615478  0.91640616  0.67543755     0.08900
C584        C  0.25337048  0.93646647  0.70142095    -0.17900
C585        C  0.40419997  0.59628101  0.50040008    -0.11800
C586        C  0.37907953  0.61998101  0.50009125    -0.13300
C587        C  0.10081445  0.59703457  0.49826719    -0.11800
C588        C  0.12580324  0.62087585  0.49819313    -0.13300
C589        C  0.12653667  0.87462314  0.49880513    -0.11800
C590        C  0.10144252  0.89831154  0.49875446    -0.13300
C591        C  0.40487261  0.89760295  0.50061039    -0.11800
C592        C  0.37977740  0.87392238  0.50034935    -0.13300
C593        C  0.13215721  0.75026438  0.37994582    -0.17000
C594        C  0.11402664  0.75142002  0.35294684     0.07100
C595        C  0.09335441  0.75255290  0.32106437     0.08900
C596        C  0.07171771  0.75268617  0.29646928    -0.17900
C597        C  0.37297726  0.74548495  0.37961190    -0.17000
C598        C  0.39114037  0.74528004  0.35256580     0.07100
C599        C  0.41242962  0.74578006  0.32094879     0.08900
C600        C  0.43531271  0.74681641  0.29735095    -0.17900
C601        C  0.24901834  0.93593853  0.29845651    -0.17000
C602        C  0.25151254  0.91615415  0.32463327     0.07100
C603        C  0.25263440  0.89364270  0.35580197     0.08900
C604        C  0.25281738  0.87303356  0.38155060    -0.17900
C605        C  0.25331363  0.55693747  0.29975308    -0.17000
C606        C  0.25654473  0.57736354  0.32545781     0.07100
C607        C  0.25746608  0.60139639  0.35568320     0.08900
C608        C  0.25674299  0.62296701  0.38076116    -0.17900
O609        O  0.75437001  0.18621113  0.39939055    -0.85000
O610        O  0.75299157  0.18578243  0.60061829    -0.85200
O611        O  0.81504750  0.13760495  0.49948266    -0.86800
O612        O  0.68990931  0.13806637  0.49907620    -0.85600
O613        O  0.64432482  0.18514463  0.49905495    -0.85200
O614        O  0.86090074  0.18440491  0.49986249    -0.86500
O615        O  0.75226667  0.13804625  0.55839112    -0.85000
O616        O  0.75462244  0.13817942  0.44134699    -0.84600
Zr617      Zr  0.75260241  0.16886723  0.49981983     2.84300
O618        O  0.71432051  0.20824564  0.53531749    -1.06600
O619        O  0.79094476  0.20844201  0.46463351    -1.07300
C620        C  0.75519628  0.15070477  0.40897711     1.08100
C621        C  0.75265686  0.15036227  0.59084962     1.08100
C622        C  0.84984725  0.14904129  0.49963842     1.11000
C623        C  0.65517387  0.14971257  0.49885973     1.08800
H624        H  0.80680627  0.19200502  0.55062864     0.34400
O625        O  0.79125582  0.20784358  0.53547549    -1.27500
H626        H  0.69866212  0.19261484  0.44899085     0.34100
O627        O  0.71415141  0.20829790  0.46433289    -1.29200
O628        O  0.75432629  0.30877001  0.60075557    -0.85000
O629        O  0.75266885  0.30983524  0.40003775    -0.86500
O630        O  0.85949371  0.24809425  0.55948436    -0.85100
O631        O  0.64631759  0.24628539  0.55912166    -0.85100
O632        O  0.64614972  0.24896210  0.44093046    -0.84800
O633        O  0.85892195  0.24597820  0.44060583    -0.84600
O634        O  0.81568047  0.35682229  0.50019500    -0.85000
O635        O  0.69053658  0.35706650  0.49929039    -0.84500
O636        O  0.86119491  0.30966784  0.50010969    -0.85500
O637        O  0.64471807  0.31022530  0.49942177    -0.84700
O638        O  0.81218415  0.24790982  0.60127671    -0.85100
O639        O  0.81172094  0.24723206  0.39869611    -0.84800
O640        O  0.69329543  0.24851868  0.39897112    -0.84500
O641        O  0.69347824  0.24590164  0.60107593    -0.84900
O642        O  0.75437175  0.35677351  0.55878102    -0.85200
O643        O  0.75299535  0.35765114  0.44217369    -0.86500
Zr644      Zr  0.75288093  0.24727705  0.57032817     2.83100
Zr645      Zr  0.75266731  0.24782135  0.42975188     2.83500
Zr646      Zr  0.82978725  0.24714350  0.50011721     2.84100
Zr647      Zr  0.67591970  0.24762775  0.49997459     2.83400
Zr648      Zr  0.75305835  0.32605737  0.50025801     2.84200
O649        O  0.71440443  0.28704656  0.46473892    -1.07100
O650        O  0.79140621  0.28647046  0.53553213    -1.06600
C651        C  0.75489864  0.34426184  0.59116269     1.08100
C652        C  0.75282991  0.34529555  0.40975163     1.10700
C653        C  0.84696325  0.24839878  0.59190180     1.08300
C654        C  0.65874883  0.24564380  0.59151294     1.08600
C655        C  0.65857571  0.24912893  0.40853589     1.08200
C656        C  0.84643232  0.24623378  0.40819391     1.07800
C657        C  0.85037667  0.34509839  0.50022073     1.08200
C658        C  0.65576347  0.34557486  0.49909290     1.07700
H659        H  0.80704819  0.30243766  0.44957595     0.34400
O660        O  0.79142654  0.28668700  0.46474114    -1.28200
H661        H  0.69882820  0.30262852  0.55093209     0.34400
O662        O  0.71433917  0.28684726  0.53569068    -1.29600
N663        N  0.56116781  0.49745825  0.50101696    -0.35100
N664        N  0.00263721  0.05654610  0.49951442    -0.55700
N665        N  0.94462815  0.49704342  0.50243968    -0.35100
N666        N  0.00305432  0.43789674  0.49967468    -0.55700
C667        C  0.58222899  0.02890830  0.49354149     0.28500
C668        C  0.58253847  0.46614704  0.49386627     0.28500
C669        C  0.92307755  0.02831310  0.49560014     0.28500
C670        C  0.92327242  0.46559308  0.49580485     0.28500
C671        C  0.53328150  0.07921074  0.50412672     0.37100
C672        C  0.97192443  0.07897885  0.50495060     0.37100
C673        C  0.53382880  0.41539663  0.50401815     0.37100
C674        C  0.97250165  0.41519953  0.50493676     0.37100
C675        C  0.61754685  0.01739906  0.48175465    -0.20400
C676        C  0.61790730  0.47786460  0.48238021    -0.20400
C677        C  0.88756030  0.01656147  0.48460041    -0.20400
C678        C  0.88756833  0.47706475  0.48507549    -0.20400
C679        C  0.52195071  0.11626499  0.51223260    -0.21400
C680        C  0.98320003  0.11613761  0.51269208    -0.21400
C681        C  0.52274390  0.37814171  0.51168534    -0.21400
C682        C  0.98402317  0.37802543  0.51232744    -0.21400
C683        C  0.57124354  0.06760635  0.49888655    -0.16800
C684        C  0.57172528  0.42737039  0.49907209    -0.16800
C685        C  0.93442449  0.42689851  0.50081748    -0.16800
C686        C  0.93392524  0.06709267  0.50060072    -0.16800
H687        H  0.64089555  0.03557458  0.47399594     0.16100
H688        H  0.64145427  0.45983059  0.47488264     0.16100
H689        H  0.86390847  0.03456459  0.47734229     0.16100
H690        H  0.86393936  0.45888072  0.47815006     0.16100
H691        H  0.53977070  0.14097528  0.51688186     0.14400
H692        H  0.96532847  0.14070814  0.51778497     0.14400
H693        H  0.54072143  0.35348929  0.51606308     0.14400
H694        H  0.96632278  0.35327440  0.51721562     0.14400
H695        H  0.53515265  0.49738397  0.51368054     0.27700
H696        H  0.97093862  0.49716203  0.51454355     0.27700
O697        O  0.99347400  0.43763879  0.89983136    -0.85000
O698        O  0.99209442  0.43731762  0.10036686    -0.85200
O699        O  0.55576610  0.38959201  0.00012324    -0.86800
O700        O  0.93091443  0.38994767  0.00070347    -0.85600
O701        O  0.88526920  0.43694222  0.00036093    -0.85200
O702        O  0.60146685  0.43653898  0.00053143    -0.86500
O703        O  0.99178564  0.38948967  0.05824955    -0.85000
O704        O  0.99359765  0.38966490  0.94184707    -0.84600
Zr705      Zr  0.99340446  0.42075567  0.00007661     2.84300
O706        O  0.95506764  0.46015230  0.03534820    -1.06600
O707        O  0.53188281  0.46003470  0.96469463    -1.07300
C708        C  0.99349856  0.40217446  0.90948201     1.08100
C709        C  0.99131437  0.40186910  0.09065529     1.08100
C710        C  0.59049519  0.40117426  0.00035267     1.11000
C711        C  0.89621301  0.40158276  0.00072455     1.08800
H712        H  0.54746614  0.44388953  0.05098237     0.34400
O713        O  0.53200268  0.45971168  0.03573419    -1.27500
H714        H  0.93933805  0.44421547  0.94932776     0.34100
O715        O  0.95494286  0.45998052  0.96449171    -1.29200
O716        O  0.99417019  0.06070237  0.10069998    -0.85000
O717        O  0.99172509  0.06077759  0.89935902    -0.86500
O718        O  0.60011505  0.50012190  0.05924871    -0.85100
O719        O  0.88687682  0.49752472  0.05909856    -0.85100
O720        O  0.88695349  0.50000821  0.94074088    -0.84800
O721        O  0.60011917  0.49756694  0.94124536    -0.84600
O722        O  0.55600890  0.10888263  0.00045802    -0.85000
O723        O  0.93117820  0.10880683  0.00098049    -0.84500
O724        O  0.60159029  0.06180115  0.00061021    -0.85500
O725        O  0.88548363  0.06183600  0.00042765    -0.84700
O726        O  0.55287486  0.50000858  0.10112033    -0.85100
O727        O  0.55301585  0.49863288  0.89924567    -0.84800
O728        O  0.93423557  0.49985866  0.89891183    -0.84500
O729        O  0.93400067  0.49794270  0.10107824    -0.84900
O730        O  0.99438199  0.10874676  0.05875794    -0.85200
O731        O  0.99157282  0.10856946  0.94153252    -0.86500
Zr732      Zr  0.99346160  0.49911035  0.07039949     2.83100
Zr733      Zr  0.99353977  0.49934293  0.92980333     2.83500
Zr734      Zr  0.57031871  0.49913885  0.00022874     2.84100
Zr735      Zr  0.91663887  0.49934309  0.99997335     2.83400
Zr736      Zr  0.99356523  0.07785598  0.00018503     2.84200
O737        O  0.95514301  0.03857492  0.96472839    -1.07100
O738        O  0.53184320  0.03844428  0.03556200    -1.06600
C739        C  0.99440115  0.09620349  0.09116195     1.08100
C740        C  0.99098769  0.09621464  0.90908055     1.10700
C741        C  0.58762100  0.50040334  0.09161849     1.08300
C742        C  0.89927573  0.49719103  0.09152211     1.08600
C743        C  0.89947317  0.50011408  0.90834705     1.08200
C744        C  0.58772293  0.49762214  0.90884705     1.07800
C745        C  0.59071467  0.09720432  0.00068478     1.08200
C746        C  0.89647088  0.09718773  0.00083988     1.07700
H747        H  0.54760648  0.05449511  0.94936925     0.34400
O748        O  0.53208389  0.03870179  0.96459792    -1.28200
H749        H  0.93942831  0.05421692  0.05088730     0.34400
O750        O  0.95498163  0.03852885  0.03560692    -1.29600
N751        N  0.68516592  0.24921710  0.99763082    -0.35100
N752        N  0.74368011  0.18954783  0.00123819    -0.55700
N753        N  0.80208444  0.24930815  0.00039458    -0.35100
N754        N  0.74348145  0.30899015  0.00093392    -0.55700
C755        C  0.66318386  0.21778543  0.00236286     0.28500
C756        C  0.66306983  0.28060018  0.00217046     0.28500
C757        C  0.82447409  0.21790171  0.00270007     0.28500
C758        C  0.82438838  0.28077929  0.00260189     0.28500
C759        C  0.71300009  0.16651660  0.99886314     0.37100
C760        C  0.77447240  0.16655697  0.99971244     0.37100
C761        C  0.71275855  0.33197874  0.99862180     0.37100
C762        C  0.77424414  0.33203086  0.99950090     0.37100
C763        C  0.62642616  0.22942950  0.00901253    -0.20400
C764        C  0.62634972  0.26886597  0.00887546    -0.20400
C765        C  0.86171851  0.22965269  0.00604321    -0.20400
C766        C  0.86166532  0.26912733  0.00597952    -0.20400
C767        C  0.72440350  0.12854962  0.99631565    -0.21400
C768        C  0.76316840  0.12856698  0.99688775    -0.21400
C769        C  0.72410081  0.36997632  0.99620649    -0.21400
C770        C  0.76287035  0.37001399  0.99678314    -0.21400
C771        C  0.67482401  0.17882910  0.00031958    -0.16800
C772        C  0.67460256  0.31958186  0.00001557    -0.16800
C773        C  0.81247715  0.31971974  0.00103998    -0.16800
C774        C  0.81266988  0.17893613  0.00121802    -0.16800
H775        H  0.60209096  0.21140518  0.01378395     0.16100
H776        H  0.60194845  0.28682872  0.01353681     0.16100
H777        H  0.88651142  0.21170081  0.00826273     0.16100
H778        H  0.88641418  0.28714761  0.00814517     0.16100
H779        H  0.70665050  0.10337024  0.99439762     0.14400
H780        H  0.78098199  0.10340060  0.99535324     0.14400
H781        H  0.70630877  0.39513710  0.99438835     0.14400
H782        H  0.78064297  0.39521841  0.99535560     0.14400
H783        H  0.71273820  0.24922746  0.98872206     0.27700
H784        H  0.77346773  0.24927672  0.99590238     0.27700
C785        C  0.53817746  0.25135294  0.27410458     0.88000
C786        C  0.53549902  0.21603580  0.24986487    -0.52300
C787        C  0.00289020  0.21478646  0.23062015     0.10900
C788        C  0.97586134  0.24842999  0.23777967     0.21900
C789        C  0.53279934  0.28586068  0.24929118    -0.53000
C790        C  0.00018744  0.28403065  0.23004459     0.11000
C791        C  0.00305301  0.25014691  0.29722967    -0.52500
C792        C  0.97049720  0.24856856  0.27847805     0.11600
H793        H  0.55797069  0.19508928  0.24690500     0.16100
H794        H  0.94923763  0.24718389  0.22221485     0.01800
H795        H  0.55360070  0.30846024  0.24591833     0.16400
H796        H  0.00379000  0.25036459  0.32620816     0.16200
C797        C  0.70785306  0.49885589  0.22622717     0.88000
C798        C  0.71075182  0.46335468  0.25021864    -0.52300
C799        C  0.74345104  0.46222748  0.26942030     0.10900
C800        C  0.77030226  0.49602533  0.26240034     0.21900
C801        C  0.71292239  0.03311479  0.25138403    -0.53000
C802        C  0.74561357  0.03137675  0.27056487     0.11000
C803        C  0.74295827  0.49805416  0.20303053    -0.52500
C804        C  0.77556481  0.49652271  0.22168624     0.11600
H805        H  0.68829882  0.44239855  0.25325833     0.16100
H806        H  0.79696834  0.49480520  0.27790474     0.01800
H807        H  0.69196142  0.05552093  0.25496015     0.16400
H808        H  0.74215296  0.49855696  0.17405570     0.16200
C809        C  0.53804078  0.24851179  0.72605587     0.88000
C810        C  0.53548363  0.28370402  0.75044196    -0.52300
C811        C  0.00293291  0.28461028  0.76995374     0.10900
C812        C  0.97599493  0.25088959  0.76294376     0.21900
C813        C  0.53308010  0.21388662  0.75082956    -0.53000
C814        C  0.00059789  0.21544713  0.77041364     0.11000
C815        C  0.00262964  0.24963408  0.70327521    -0.52500
C816        C  0.97022591  0.25088646  0.72229613     0.11600
H817        H  0.55788806  0.30474141  0.75330476     0.16100
H818        H  0.94952202  0.25191935  0.77876085     0.01800
H819        H  0.55400379  0.19135365  0.75388340     0.16400
H820        H  0.00309182  0.24939290  0.67429331     0.16200
C821        C  0.70862827  0.49570830  0.77446642     0.88000
C822        C  0.71079019  0.03030164  0.74946503    -0.52300
C823        C  0.74324287  0.03131303  0.72987027     0.10900
C824        C  0.77059196  0.49802574  0.73749405     0.21900
C825        C  0.71393611  0.46065039  0.75031328    -0.53000
C826        C  0.74631625  0.46221485  0.73065366     0.11000
C827        C  0.74399415  0.49765397  0.79721576    -0.52500
C828        C  0.77634959  0.49883807  0.77813882     0.11600
H829        H  0.68811853  0.05098595  0.74629713     0.16100
H830        H  0.79705736  0.49899409  0.72166256     0.01800
H831        H  0.69313139  0.43796948  0.74749435     0.16400
H832        H  0.74355731  0.49791715  0.82620091     0.16200
C833        C  0.67424869  0.50039422  0.20391937    -0.17000
C834        C  0.65266136  0.50111943  0.17929174     0.07100
C835        C  0.63207359  0.50130742  0.14734001     0.08900
C836        C  0.61400735  0.50104578  0.12028068    -0.17900
C837        C  0.87280724  0.49597101  0.12020615    -0.17000
C838        C  0.85458413  0.49522289  0.14722811     0.07100
C839        C  0.83337149  0.49494352  0.17892308     0.08900
C840        C  0.81060721  0.49534936  0.20265766    -0.17900
C841        C  0.98977708  0.37408825  0.11875288    -0.17000
C842        C  0.98894183  0.35305637  0.14420211     0.07100
C843        C  0.98964336  0.32982518  0.17494467     0.08900
C844        C  0.99274863  0.30972403  0.20087223    -0.17900
C845        C  0.99431649  0.12375180  0.11954734    -0.17000
C846        C  0.99418001  0.14431438  0.14536444     0.07100
C847        C  0.99493481  0.16733444  0.17628480     0.08900
C848        C  0.99731290  0.18786447  0.20200929    -0.17900
C849        C  0.61979569  0.37230689  0.00045838    -0.11800
C850        C  0.64498301  0.34875871  0.00036224    -0.13300
C851        C  0.84190447  0.34905468  0.00111158    -0.11800
C852        C  0.86693842  0.37274194  0.00102831    -0.13300
C853        C  0.86722327  0.12603335  0.00119222    -0.11800
C854        C  0.84215692  0.14967419  0.00129019    -0.13300
C855        C  0.62009781  0.12600828  0.00085837    -0.11800
C856        C  0.64527591  0.14957475  0.00074626    -0.13300
C857        C  0.87315954  0.50039253  0.87953807    -0.17000
C858        C  0.85524152  0.50053535  0.85234032     0.07100
C859        C  0.83435035  0.50053208  0.82047934     0.08900
C860        C  0.81160563  0.50010908  0.79675106    -0.17900
C861        C  0.67527540  0.49451616  0.79715213    -0.17000
C862        C  0.65359767  0.49440925  0.82172792     0.07100
C863        C  0.63260074  0.49523348  0.85343867     0.08700
C864        C  0.61422546  0.49634786  0.88029594    -0.17900
C865        C  0.99347422  0.18951629  0.79951179    -0.17000
C866        C  0.99027191  0.16906803  0.82521717     0.07100
C867        C  0.98912106  0.14533440  0.85565539     0.08900
C868        C  0.98956936  0.12404250  0.88095595    -0.17900
C869        C  0.99326973  0.37456953  0.88132048    -0.17000
C870        C  0.99344947  0.35391046  0.85566666     0.07100
C871        C  0.99478063  0.33112575  0.82475798     0.08900
C872        C  0.99747855  0.31104581  0.79883970    -0.17900
C873        C  0.87322760  0.24954171  0.62083607    -0.17000
C874        C  0.89106714  0.25066943  0.64811172     0.07100
C875        C  0.91205338  0.25161800  0.67997685     0.08900
C876        C  0.93491936  0.25172595  0.70364752    -0.17900
C877        C  0.63225372  0.24486088  0.62010545    -0.17000
C878        C  0.61390396  0.24489307  0.64700555     0.07100
C879        C  0.59299942  0.24581362  0.67877606     0.08900
C880        C  0.57139302  0.24704028  0.70338387    -0.17900
C881        C  0.75282743  0.12252553  0.61893996    -0.17000
C882        C  0.75255779  0.10138792  0.64432634     0.07100
C883        C  0.75113690  0.07793953  0.67490743     0.08900
C884        C  0.74847878  0.05759235  0.70071665    -0.17900
C885        C  0.75615222  0.37196341  0.61935022    -0.17000
C886        C  0.75672730  0.39305781  0.64476021     0.07100
C887        C  0.75595983  0.41637503  0.67544285     0.08900
C888        C  0.75313625  0.43645579  0.70140738    -0.17900
C889        C  0.90423307  0.09628152  0.50024951    -0.11800
C890        C  0.87911076  0.11998239  0.49986385    -0.13300
C891        C  0.60075913  0.09697784  0.49840944    -0.11800
C892        C  0.62578215  0.12079086  0.49840728    -0.13300
C893        C  0.62651909  0.37456861  0.49868418    -0.11800
C894        C  0.60141830  0.39824969  0.49867809    -0.13300
C895        C  0.90492137  0.39757003  0.50066562    -0.11800
C896        C  0.87980231  0.37390753  0.50041530    -0.13300
C897        C  0.63214118  0.25019919  0.37993172    -0.17000
C898        C  0.61405691  0.25135698  0.35290816     0.07100
C899        C  0.59341985  0.25250939  0.32101150     0.08900
C900        C  0.57176722  0.25267734  0.29643325    -0.17900
C901        C  0.87278377  0.24544859  0.37943819    -0.17000
C902        C  0.89099855  0.24523542  0.35241847     0.07100
C903        C  0.91242212  0.24575844  0.32087570     0.08900
C904        C  0.93539430  0.24683314  0.29735141    -0.17900
C905        C  0.74884878  0.43594371  0.29850103    -0.17000
C906        C  0.75141029  0.41615897  0.32467316     0.07100
C907        C  0.75266024  0.39365196  0.35584203     0.08900
C908        C  0.75291536  0.37304535  0.38159268    -0.17900
C909        C  0.75304433  0.05696613  0.29982937    -0.17000
C910        C  0.75638338  0.07738284  0.32552279     0.07100
C911        C  0.75745704  0.10138863  0.35575199     0.08900
C912        C  0.75680496  0.12293633  0.38084114    -0.17900
O913        O  0.75432549  0.68624791  0.39930839    -0.85000
O914        O  0.75301593  0.68585545  0.60063113    -0.85200
O915        O  0.81503327  0.63759216  0.49959275    -0.86800
O916        O  0.68990864  0.63809536  0.49892017    -0.85600
O917        O  0.64433706  0.68518772  0.49901406    -0.85200
O918        O  0.86088288  0.68439445  0.50007465    -0.86500
O919        O  0.75223174  0.63810531  0.55841584    -0.85000
O920        O  0.75464033  0.63823887  0.44128882    -0.84600
Zr921      Zr  0.75260021  0.66888476  0.49980702     2.84300
O922        O  0.71432338  0.70827384  0.53531690    -1.06600
O923        O  0.79096954  0.70844724  0.46462903    -1.07300
C924        C  0.75516892  0.65074571  0.40890789     1.08100
C925        C  0.75267069  0.65043152  0.59087435     1.08100
C926        C  0.84983312  0.64902884  0.49982581     1.11000
C927        C  0.65517744  0.64975315  0.49873672     1.08800
H928        H  0.80676666  0.69203349  0.55065334     0.34400
O929        O  0.79122811  0.70786678  0.53548513    -1.27500
H930        H  0.69867408  0.69266724  0.44898729     0.34100
O931        O  0.71416780  0.70834139  0.46433286    -1.29200
O932        O  0.75433209  0.80884065  0.60072746    -0.85000
O933        O  0.75263506  0.80979882  0.39996263    -0.86500
O934        O  0.85944596  0.74812076  0.55954900    -0.85100
O935        O  0.64637746  0.74629296  0.55914623    -0.85100
O936        O  0.64608531  0.74903134  0.44098766    -0.84800
O937        O  0.85903870  0.74595670  0.44072928    -0.84600
O938        O  0.81569003  0.85683028  0.50010239    -0.85000
O939        O  0.69053889  0.85712317  0.49941445    -0.84500
O940        O  0.86119957  0.80966917  0.50009664    -0.85500
O941        O  0.64472135  0.81028248  0.49956925    -0.84700
O942        O  0.81211673  0.74798408  0.60131686    -0.85100
O943        O  0.81185922  0.74731044  0.39879743    -0.84800
O944        O  0.69322635  0.74854236  0.39902190    -0.84500
O945        O  0.69352824  0.74603335  0.60110755    -0.84900
O946        O  0.75438304  0.85683405  0.55874485    -0.85200
O947        O  0.75290124  0.85761527  0.44210109    -0.86500
Zr948      Zr  0.75287609  0.74733474  0.57031601     2.83100
Zr949      Zr  0.75268861  0.74782539  0.42972601     2.83500
Zr950      Zr  0.82978481  0.74715042  0.50016215     2.84100
Zr951      Zr  0.67593196  0.74767102  0.49998175     2.83400
Zr952      Zr  0.75305890  0.82608853  0.50023026     2.84200
O953        O  0.71442147  0.78706044  0.46471391    -1.07100
O954        O  0.79141412  0.78652754  0.53553642    -1.06600
C955        C  0.75490528  0.84433141  0.59113048     1.08100
C956        C  0.75274845  0.84525773  0.40967726     1.10700
C957        C  0.84689491  0.74843291  0.59195799     1.08300
C958        C  0.65880618  0.74572649  0.59153839     1.08600
C959        C  0.65850082  0.74918111  0.40859109     1.08200
C960        C  0.84657013  0.74627976  0.40831451     1.07800
C961        C  0.85038429  0.84510089  0.50015001     1.08200
C962        C  0.65576274  0.84563646  0.49925990     1.07700
H963        H  0.80705349  0.80242607  0.44958573     0.34400
O964        O  0.79142811  0.78667902  0.46475050    -1.28200
H965        H  0.69884276  0.80268021  0.55092382     0.34400
O966        O  0.71434692  0.78689714  0.53567804    -1.29600
N967        N  0.56112149  0.99747623  0.50096463    -0.35100
N968        N  0.00267915  0.55657711  0.49939917    -0.55700
N969        N  0.94456849  0.99703831  0.50258288    -0.35100
N970        N  0.00301851  0.93792448  0.49950525    -0.55700
C971        C  0.58233584  0.52889109  0.49373538     0.28500
C972        C  0.58242891  0.96617579  0.49362272     0.28500
C973        C  0.92307957  0.52831774  0.49560996     0.28500
C974        C  0.92328183  0.96560079  0.49570621     0.28500
C975        C  0.53331049  0.57923776  0.50401729     0.37100
C976        C  0.97196203  0.57901709  0.50479532     0.37100
C977        C  0.53380367  0.91548136  0.50409058     0.37100
C978        C  0.97247855  0.91526225  0.50496141     0.37100
C979        C  0.61777374  0.51736832  0.48228401    -0.20400
C980        C  0.61767804  0.97789177  0.48181871    -0.20400
C981        C  0.88745755  0.51655330  0.48492768    -0.20400
C982        C  0.88767937  0.97707281  0.48468977    -0.20400
C983        C  0.52197611  0.61631277  0.51204289    -0.21400
C984        C  0.98323799  0.61619039  0.51248004    -0.21400
C985        C  0.52273636  0.87830161  0.51207317    -0.21400
C986        C  0.98400558  0.87816720  0.51266328    -0.21400
C987        C  0.57128589  0.56761274  0.49887394    -0.16800
C988        C  0.57168673  0.92742211  0.49902927    -0.16800
C989        C  0.93441010  0.92691704  0.50075141    -0.16800
C990        C  0.93395059  0.56710712  0.50055015    -0.16800
H991        H  0.64120135  0.53553113  0.47471470     0.16100
H992        H  0.64114451  0.95985244  0.47411005     0.16100
H993        H  0.86372455  0.53454646  0.47788742     0.16100
H994        H  0.86413959  0.95888707  0.47750228     0.16100
H995        H  0.53979418  0.64103154  0.51666087     0.14400
H996        H  0.96536794  0.64076644  0.51755492     0.14400
H997        H  0.54072705  0.85370579  0.51666953     0.14400
H998        H  0.96630769  0.85346861  0.51778125     0.14400
H999        H  0.53523680  0.99738869  0.51388278     0.27700
H1000       H  0.97078362  0.99713780  0.51489060     0.27700
O1001       O  0.99341903  0.93766792  0.89980647    -0.85000
O1002       O  0.99203935  0.93739825  0.10040607    -0.85200
O1003       O  0.55584624  0.88966111  0.00017416    -0.86800
O1004       O  0.93095491  0.88987908  0.00074058    -0.85600
O1005       O  0.88526475  0.93682690  0.00035820    -0.85200
O1006       O  0.60151558  0.93664105  0.00052855    -0.86500
O1007       O  0.99187501  0.88956272  0.05829140    -0.85000
O1008       O  0.99363360  0.88969310  0.94182012    -0.84600
Zr1009     Zr  0.99343753  0.92077100  0.00008433     2.84300
O1010       O  0.95508865  0.96014912  0.03537123    -1.06600
O1011       O  0.53189078  0.96006539  0.96471472    -1.07300
C1012       C  0.99348313  0.90219989  0.90944933     1.08100
C1013       C  0.99133657  0.90194690  0.09069602     1.08100
C1014       C  0.59057254  0.90126027  0.00040118     1.11000
C1015       C  0.89623251  0.90146724  0.00071529     1.08800
H1016       H  0.54746871  0.94402689  0.05100056     0.34400
O1017       O  0.53198969  0.95982327  0.03574369    -1.27500
H1018       H  0.93934314  0.94419236  0.94934744     0.34100
O1019       O  0.95494103  0.95996753  0.96450877    -1.29200
O1020       O  0.99411224  0.56062575  0.10069539    -0.85000
O1021       O  0.99177181  0.56075183  0.89933669    -0.86500
O1022       O  0.60011385  0.00027370  0.05921259    -0.85100
O1023       O  0.88682640  0.99744085  0.05912240    -0.85100
O1024       O  0.88694068  0.00001997  0.94076705    -0.84800
O1025       O  0.60009633  0.99771604  0.94122681    -0.84600
O1026       O  0.55611135  0.60876939  0.00044598    -0.85000
O1027       O  0.93121695  0.60881869  0.00099135    -0.84500
O1028       O  0.60167273  0.56166421  0.00059227    -0.85500
O1029       O  0.88549718  0.56187784  0.00045111    -0.84700
O1030       O  0.55288389  0.00016430  0.10109736    -0.85100
O1031       O  0.55298401  0.99872959  0.89923683    -0.84800
O1032       O  0.93421909  0.99984234  0.89893302    -0.84500
O1033       O  0.93395809  0.99808220  0.10109170    -0.84900
O1034       O  0.99435650  0.60868007  0.05875970    -0.85200
O1035       O  0.99168692  0.60854319  0.94151170    -0.86500
Zr1036     Zr  0.99343642  0.99917464  0.07041308     2.83100
Zr1037     Zr  0.99351779  0.99936007  0.92981536     2.83500
Zr1038     Zr  0.57030132  0.99923539  0.00021418     2.84100
Zr1039     Zr  0.91660690  0.99928569  0.00000495     2.83400
Zr1040     Zr  0.99361645  0.57782543  0.00016991     2.84200
O1041       O  0.95517317  0.53860772  0.96467969    -1.07100
O1042       O  0.53187181  0.53835937  0.03556910    -1.06600
C1043       C  0.99432961  0.59612788  0.09116186     1.08100
C1044       C  0.99107496  0.59618891  0.90905915     1.10700
C1045       C  0.58762769  0.00056602  0.09158296     1.08300
C1046       C  0.89923046  0.99722752  0.09154514     1.08600
C1047       C  0.89946013  0.00013235  0.90837355     1.08200
C1048       C  0.58769515  0.99774360  0.90883039     1.07800
C1049       C  0.59081059  0.59707250  0.00067658     1.08200
C1050       C  0.89649563  0.59722486  0.00085112     1.07700
H1051       H  0.54767216  0.55442583  0.94939382     0.34400
O1052       O  0.53213274  0.53864594  0.96461868    -1.28200
H1053       H  0.93949372  0.55419564  0.05086929     0.34400
O1054       O  0.95504509  0.53850624  0.03558923    -1.29600
N1055       N  0.68516894  0.74916833  0.99875016    -0.35100
N1056       N  0.74371045  0.68958984  0.00108721    -0.55700
N1057       N  0.80209749  0.74921423  0.99831113    -0.35100
N1058       N  0.74353229  0.80880241  0.00081390    -0.55700
C1059       C  0.66313177  0.71773061  0.00307304     0.28500
C1060       C  0.66302644  0.78055551  0.00293985     0.28500
C1061       C  0.82417142  0.71784333  0.00291773     0.28500
C1062       C  0.82410743  0.78064772  0.00278598     0.28500
C1063       C  0.71299385  0.66657679  0.99869975     0.37100
C1064       C  0.77444337  0.66661287  0.99861101     0.37100
C1065       C  0.71277949  0.83179055  0.99848776     0.37100
C1066       C  0.77425335  0.83180242  0.99833209     0.37100
C1067       C  0.62628990  0.72936637  0.00933628    -0.20400
C1068       C  0.62622064  0.76882390  0.00924186    -0.20400
C1069       C  0.86090968  0.72956315  0.00956338    -0.20400
C1070       C  0.86087096  0.76901636  0.00947428    -0.20400
C1071       C  0.72436167  0.62867478  0.99527484    -0.21400
C1072       C  0.76312152  0.62869420  0.99523503    -0.21400
C1073       C  0.72411132  0.86970596  0.99509515    -0.21400
C1074       C  0.76287771  0.86971339  0.99499245    -0.21400
C1075       C  0.67481138  0.67881021  0.00071182    -0.16800
C1076       C  0.67460235  0.81950468  0.00049618    -0.16800
C1077       C  0.81244004  0.81956178  0.00032613    -0.16800
C1078       C  0.81259163  0.67891082  0.00057537    -0.16800
H1079       H  0.60186747  0.71132878  0.01364602     0.16100
H1080       H  0.60173784  0.78679520  0.01347408     0.16100
H1081       H  0.88531044  0.71158707  0.01419205     0.16100
H1082       H  0.88524053  0.78705531  0.01402530     0.16100
H1083       H  0.70658561  0.60353134  0.99315363     0.14400
H1084       H  0.78092358  0.60357132  0.99308692     0.14400
H1085       H  0.70631103  0.89483884  0.99303819     0.14400
H1086       H  0.78065205  0.89485907  0.99286171     0.14400
H1087       H  0.71293883  0.74917800  0.99050483     0.27700
H1088       H  0.77446147  0.74917975  0.98964570     0.27700
C1089       C  0.53810219  0.75134043  0.27408419     0.88000
C1090       C  0.53546126  0.71603447  0.24981917    -0.52300
C1091       C  0.00287831  0.71475701  0.23058623     0.10900
C1092       C  0.97582490  0.74838322  0.23774645     0.21900
C1093       C  0.53269264  0.78585824  0.24928720    -0.53000
C1094       C  0.00013700  0.78400108  0.23002996     0.11000
C1095       C  0.00299096  0.75009025  0.29720584    -0.52500
C1096       C  0.97044497  0.74850632  0.27844600     0.11600
H1097       H  0.55794303  0.69509852  0.24686719     0.16100
H1098       H  0.94920794  0.74712896  0.22217176     0.01800
H1099       H  0.55346949  0.80848451  0.24593534     0.16400
H1100       H  0.00371398  0.75031325  0.32618506     0.16200
C1101       C  0.70779240  0.99884622  0.22623151     0.88000
C1102       C  0.71078800  0.96329857  0.25015064    -0.52300
C1103       C  0.74347817  0.96223273  0.26936823     0.10900
C1104       C  0.77023528  0.99612606  0.26241896     0.21900
C1105       C  0.71309725  0.53316559  0.25130735    -0.53000
C1106       C  0.74578195  0.53136831  0.27049170     0.11000
C1107       C  0.74290891  0.99821187  0.20304614    -0.52500
C1108       C  0.77551174  0.99673840  0.22170972     0.11600
H1109       H  0.68838951  0.94227529  0.25315095     0.16100
H1110       H  0.79689961  0.99495158  0.27792913     0.01800
H1111       H  0.69219109  0.55562879  0.25486264     0.16400
H1112       H  0.74211390  0.99876755  0.17407185     0.16200
C1113       C  0.53788985  0.74852744  0.72592412     0.88000
C1114       C  0.53529416  0.78373236  0.75028980    -0.52300
C1115       C  0.00278914  0.78458742  0.76988621     0.10900
C1116       C  0.97591190  0.75080072  0.76293722     0.21900
C1117       C  0.53303837  0.71390571  0.75072095    -0.53000
C1118       C  0.00059178  0.71541626  0.77039270     0.11000
C1119       C  0.00245926  0.74953702  0.70322900    -0.52500
C1120       C  0.97008443  0.75073549  0.72230236     0.11600
H1121       H  0.55766207  0.80481684  0.75310712     0.16100
H1122       H  0.94945936  0.75178703  0.77878722     0.01800
H1123       H  0.55400404  0.69140884  0.75374564     0.16400
H1124       H  0.00287656  0.74926408  0.67424688     0.16200
C1125       C  0.70872216  0.99558279  0.77452319     0.88000
C1126       C  0.71086543  0.53044748  0.74944557    -0.52300
C1127       C  0.74333981  0.53134041  0.72987596     0.10900
C1128       C  0.77064237  0.99812875  0.73749710     0.21900
C1129       C  0.71415806  0.96052121  0.75040099    -0.53000
C1130       C  0.74650807  0.96220530  0.73070528     0.11000
C1131       C  0.74409665  0.99771360  0.79724203    -0.52500
C1132       C  0.77642961  0.99902069  0.77813798     0.11600
H1133       H  0.68828302  0.55123329  0.74628028     0.16100
H1134       H  0.79708963  0.99919562  0.72164374     0.01800
H1135       H  0.69343363  0.93776101  0.74760516     0.16400
H1136       H  0.74368300  0.99800314  0.82622726     0.16200
C1137       C  0.67420140  0.00033395  0.20390682    -0.17000
C1138       C  0.65264770  0.00109707  0.17925542     0.07100
C1139       C  0.63209183  0.00138633  0.14728880     0.08900
C1140       C  0.61402556  0.00119486  0.12023126    -0.17900
C1141       C  0.87276652  0.99605288  0.12023854    -0.17000
C1142       C  0.85454397  0.99539537  0.14726414     0.07100
C1143       C  0.83332942  0.99522330  0.17895957     0.08900
C1144       C  0.81056163  0.99565169  0.20269076    -0.17900
C1145       C  0.98981677  0.87416056  0.11879144    -0.17000
C1146       C  0.98898350  0.85309886  0.14422032     0.07100
C1147       C  0.98965498  0.82982125  0.17493474     0.08900
C1148       C  0.99272018  0.80969395  0.20085017    -0.17900
C1149       C  0.99418720  0.62366738  0.11955280    -0.17000
C1150       C  0.99405246  0.64422237  0.14537533     0.07100
C1151       C  0.99486300  0.66725081  0.17629075     0.08900
C1152       C  0.99729074  0.68780325  0.20199772    -0.17900
C1153       C  0.61988890  0.87237888  0.00062417    -0.11800
C1154       C  0.64502368  0.84875368  0.00068484    -0.13300
C1155       C  0.84192538  0.84886739  0.00071458    -0.11800
C1156       C  0.86696690  0.87257074  0.00087008    -0.13300
C1157       C  0.86723812  0.62608325  0.00110221    -0.11800
C1158       C  0.84212725  0.64968727  0.00098115    -0.13300
C1159       C  0.62018973  0.62587705  0.00092592    -0.11800
C1160       C  0.64530895  0.64950759  0.00095632    -0.13300
C1161       C  0.87315066  0.00050462  0.87956780    -0.17000
C1162       C  0.85525892  0.00076813  0.85235784     0.07100
C1163       C  0.83441322  0.00086879  0.82047361     0.08900
C1164       C  0.81169028  0.00043480  0.79672883    -0.17900
C1165       C  0.67538623  0.99428140  0.79722750    -0.17000
C1166       C  0.65367963  0.99419554  0.82178141     0.07100
C1167       C  0.63261562  0.99515041  0.85345087     0.08700
C1168       C  0.61419901  0.99639840  0.88027925    -0.17900
C1169       C  0.99352497  0.68947115  0.79948536    -0.17000
C1170       C  0.99034390  0.66902365  0.82519023     0.07100
C1171       C  0.98920793  0.64529923  0.85563084     0.08900
C1172       C  0.98966355  0.62401496  0.88093486    -0.17900
C1173       C  0.99324454  0.87459124  0.88127217    -0.17000
C1174       C  0.99340895  0.85392703  0.85561238     0.07100
C1175       C  0.99470037  0.83111995  0.82470334     0.08900
C1176       C  0.99735390  0.81102441  0.79878437    -0.17900
C1177       C  0.87312539  0.74949156  0.62090658    -0.17000
C1178       C  0.89090438  0.75051121  0.64821320     0.07100
C1179       C  0.91185114  0.75137104  0.68009017     0.08900
C1180       C  0.93474399  0.75148183  0.70372799    -0.17900
C1181       C  0.63231131  0.74497897  0.62012068    -0.17000
C1182       C  0.61391556  0.74503409  0.64698740     0.07100
C1183       C  0.59290705  0.74594220  0.67868924     0.08900
C1184       C  0.57123087  0.74712371  0.70323973    -0.17900
C1185       C  0.75292075  0.62260484  0.61898093    -0.17000
C1186       C  0.75274325  0.60147042  0.64437469     0.07100
C1187       C  0.75138541  0.57800059  0.67495042     0.08900
C1188       C  0.74870156  0.55763010  0.70074497    -0.17900
C1189       C  0.75616583  0.87203922  0.61931836    -0.17000
C1190       C  0.75678102  0.89313126  0.64473251     0.07100
C1191       C  0.75609691  0.91644066  0.67542712     0.08900
C1192       C  0.75333498  0.93649949  0.70141516    -0.17900
C1193       C  0.90424062  0.59628403  0.50034299    -0.11800
C1194       C  0.87910311  0.61997234  0.50005138    -0.13300
C1195       C  0.60077463  0.59701060  0.49830931    -0.11800
C1196       C  0.62578212  0.62083895  0.49825974    -0.13300
C1197       C  0.62651427  0.87464007  0.49886795    -0.11800
C1198       C  0.60140951  0.89832386  0.49877534    -0.13300
C1199       C  0.90491865  0.89758041  0.50056493    -0.11800
C1200       C  0.87980935  0.87390855  0.50031204    -0.13300
C1201       C  0.63204079  0.75026830  0.37999392    -0.17000
C1202       C  0.61391957  0.75143123  0.35298538     0.07100
C1203       C  0.59328145  0.75256630  0.32107644     0.08900
C1204       C  0.57166979  0.75269994  0.29645732    -0.17900
C1205       C  0.87294587  0.74553650  0.37957589    -0.17000
C1206       C  0.89113281  0.74533446  0.35253844     0.07100
C1207       C  0.91245468  0.74581543  0.32093135     0.08900
C1208       C  0.93534943  0.74682579  0.29733584    -0.17900
C1209       C  0.74889285  0.93594989  0.29844696    -0.17000
C1210       C  0.75141149  0.91615493  0.32461628     0.07100
C1211       C  0.75258938  0.89362638  0.35577460     0.08900
C1212       C  0.75281166  0.87300785  0.38151768    -0.17900
C1213       C  0.75321005  0.55693576  0.29977803    -0.17000
C1214       C  0.75646758  0.57735639  0.32548134     0.07100
C1215       C  0.75744338  0.60138624  0.35570309     0.08900
C1216       C  0.75675842  0.62295728  0.38077867    -0.17900
loop_ 
_geom_bond_atom_site_label_1 
_geom_bond_atom_site_label_2 
_geom_bond_distance 
_geom_bond_site_symmetry_2 
_ccdc_geom_bond_type 
O1          Zr37   2.432       .  S
O1           C12   1.289       .  A
O2          Zr36   2.425       .  S
O2           C13   1.287       .  A
O3           Zr9   2.468       .  S
O3           C14   1.297       .  A
O4           Zr9   2.469       .  S
O4           C15   1.297       .  A
O5          Zr39   2.449       .  S
O5           C15   1.293       .  A
O6          Zr38   2.449       .  S
O6           C14   1.293       .  A
O7           Zr9   2.447       .  S
O7           C13   1.292       .  A
O8           Zr9   2.444       .  S
O8           C12   1.291       .  A
Zr9          O10   2.346       .  S
Zr9          O11   2.344       .  S
Zr9          O19   2.350       .  S
Zr9          O17   2.349       .  S
O10         Zr36   2.335       .  S
O10         Zr39   2.345       .  S
O11         Zr37   2.332       .  S
O11         Zr38   2.344       .  S
C12         C304   1.434       .  S
C13         C273   1.432       .  S
C14         C282   1.450       .  S
C15         C284   1.450       .  S
H16          O17   0.966       .  S
O17         Zr36   2.335       .  S
O17         Zr38   2.346       .  S
H18          O19   0.966       .  S
O19         Zr37   2.334       .  S
O19         Zr39   2.347       .  S
O20         Zr36   2.428       .  S
O20          C43   1.288       .  A
O21         Zr37   2.432       .  S
O21          C44   1.288       .  A
O22         Zr38   2.466       .  S
O22          C45   1.296       .  A
O23         Zr39   2.457       .  S
O23          C46   1.294       .  A
O24         Zr39   2.456       .  S
O24          C47   1.294       .  A
O25         Zr38   2.462       .  S
O25          C48   1.295       .  A
O26         Zr40   2.466       .  S
O26          C49   1.297       .  A
O27         Zr40   2.467       .  S
O27          C50   1.297       .  A
O28         Zr38   2.447       .  S
O28          C49   1.293       .  A
O29         Zr39   2.446       .  S
O29          C50   1.293       .  A
O30         Zr36   2.404       .  S
O30          C45   1.283       .  A
O31         Zr37   2.397       .  S
O31          C48   1.282       .  A
O32         Zr37   2.402       .  S
O32          C47   1.283       .  A
O33         Zr36   2.403       .  S
O33          C46   1.283       .  A
O34         Zr40   2.445       .  S
O34          C43   1.292       .  A
O35         Zr40   2.443       .  S
O35          C44   1.291       .  A
Zr36         O42   2.332       .  S
Zr36         O54   2.337       .  S
Zr37         O41   2.331       .  S
Zr37         O52   2.335       .  S
Zr38         O42   2.345       .  S
Zr38         O52   2.348       .  S
Zr39         O41   2.345       .  S
Zr39         O54   2.350       .  S
Zr40         O41   2.346       .  S
Zr40         O42   2.346       .  S
Zr40         O54   2.350       .  S
Zr40         O52   2.348       .  S
C43         C277   1.433       .  S
C44         C300   1.433       .  S
C45         C265   1.432       .  S
C46         C269   1.427       .  S
C47         C289   1.426       .  S
C48         C293   1.428       .  S
C49         C288   1.448       .  S
C50         C285   1.448       .  S
H51          O52   0.965       .  S
H53          O54   0.966       .  S
N55          C60   1.355       .  A
N55         C363   1.356       .  A
N55          H87   1.038       .  S
N56          C64   1.356       .  A
N56         C671   1.356       .  A
N57          C62   1.355       .  A
N57         C365   1.355       .  A
N57          H88   1.038       .  S
N58          C66   1.356       .  A
N58         C673   1.356       .  A
C59         N359   1.356   1_545  A
C59          C67   1.388       .  A
C59          C75   1.418       .  A
C60          C76   1.418       .  A
C60          C68   1.388       .  A
C61         N361   1.355   1_545  A
C61          C69   1.388       .  A
C61          C78   1.417       .  A
C62          C77   1.417       .  A
C62          C70   1.388       .  A
C63         N664   1.356       .  A
C63          C75   1.420       .  A
C63          C71   1.386       .  A
C64          C78   1.419       .  A
C64          C72   1.386       .  A
C65         N666   1.356       .  A
C65          C73   1.387       .  A
C65          C76   1.420       .  A
C66          C74   1.386       .  A
C66          C77   1.419       .  A
C67         C372   1.377   1_545  A
C67          H79   1.082       .  S
C68         C371   1.376       .  A
C68          H80   1.082       .  S
C69         C374   1.376   1_545  A
C69          H81   1.082       .  S
C70         C373   1.376       .  A
C70          H82   1.082       .  S
C71         C680   1.376   1_455  A
C71          H83   1.082       .  S
C72         C679   1.376       .  A
C72          H84   1.082       .  S
C73         C682   1.376   1_455  A
C73          H85   1.082       .  S
C74         C681   1.376       .  A
C74          H86   1.082       .  S
C75         C283   1.464       .  S
C76         C286   1.462       .  S
C77         C287   1.462       .  S
C78         C281   1.464       .  S
O89        Zr125   2.426       .  S
O89         C100   1.288       .  A
O90        Zr124   2.430       .  S
O90         C101   1.288       .  A
O91        Zr705   2.464   1_455  S
O91         C102   1.296       .  A
O92         Zr97   2.463       .  S
O92         C103   1.296       .  A
O93        Zr127   2.443   1_554  S
O93         C103   1.292       .  A
O94        Zr126   2.445       .  S
O94         C102   1.292       .  A
O95         Zr97   2.441       .  S
O95         C101   1.291       .  A
O96         Zr97   2.440   1_556  S
O96         C100   1.291       .  A
Zr97        O699   2.464       .  S
Zr97         O98   2.343       .  S
Zr97        O107   2.348   1_554  S
Zr97        O707   2.346   1_554  S
Zr97        O713   2.348       .  S
O98        Zr124   2.330       .  S
O98        Zr127   2.342   1_554  S
O99        Zr126   2.344   1_556  S
O99        Zr705   2.345   1_456  S
O99        Zr733   2.333   1_455  S
C100        C261   1.430       .  S
C101        C233   1.433       .  S
C102        C241   1.446       .  S
C103        C244   1.445       .  S
H104        O105   0.966       .  S
O105       Zr126   2.347       .  S
O105       Zr705   2.348   1_455  S
O105       Zr732   2.334   1_455  S
H106        O107   0.966       .  S
O107       Zr125   2.334       .  S
O107       Zr127   2.345       .  S
O108       Zr428   2.428   1_545  S
O108        C131   1.288       .  A
O109       Zr429   2.426   1_545  S
O109        C132   1.288       .  A
O110       Zr126   2.456       .  S
O110        C133   1.294       .  A
O111       Zr127   2.458   1_554  S
O111        C134   1.294       .  A
O112       Zr127   2.462       .  S
O112        C135   1.295       .  A
O113       Zr126   2.454   1_556  S
O113        C136   1.293       .  A
O114       Zr736   2.465   1_455  S
O114        C137   1.296       .  A
O115       Zr128   2.462       .  S
O115        C138   1.296       .  A
O116       Zr430   2.446   1_545  S
O116        C137   1.292       .  A
O117       Zr431   2.443   1_545  S
O117        C138   1.292       .  A
O118       Zr732   2.403   1_455  S
O118        C133   1.283       .  A
O119       Zr733   2.404   1_455  S
O119        C136   1.283       .  A
O120       Zr125   2.402       .  S
O120        C135   1.283       .  A
O121       Zr124   2.403       .  S
O121        C134   1.283       .  A
O122       Zr128   2.448       .  S
O122        C131   1.292       .  A
O123       Zr128   2.449   1_556  S
O123        C132   1.292       .  A
Zr124       O412   2.427       .  S
Zr124       O726   2.403       .  S
Zr124       O713   2.333       .  S
Zr124      O1042   2.332       .  S
Zr124       O446   2.334       .  S
Zr125       O413   2.426       .  S
Zr125       O727   2.403       .  S
Zr125       O707   2.333       .  S
Zr125       O433   2.332       .  S
Zr125      O1052   2.336       .  S
Zr126       O420   2.446       .  S
Zr126       O434   2.343       .  S
Zr126       O444   2.349   1_554  S
Zr127       O421   2.443   1_556  S
Zr127       O433   2.344       .  S
Zr127       O446   2.347   1_556  S
Zr128       O722   2.466       .  S
Zr128       O129   2.346   1_554  S
Zr128       O142   2.349       .  S
Zr128       O738   2.345       .  S
Zr128       O748   2.349   1_554  S
O129       Zr429   2.332   1_545  S
O129       Zr431   2.344   1_546  S
O130      Zr1036   2.332   1_445  S
O130       Zr430   2.343   1_545  S
O130       Zr736   2.345   1_455  S
C131        C237   1.434       .  S
C132        C260   1.434       .  S
C133        C228   1.427       .  S
C134        C229   1.429       .  S
C135        C249   1.429       .  S
C136        C256   1.426       .  S
C137        C247   1.447       .  S
C138        C245   1.445       .  S
H139        O140   0.966       .  S
O140      Zr1037   2.336   1_445  S
O140       Zr430   2.349   1_546  S
O140       Zr736   2.349   1_456  S
H141        O142   0.966       .  S
O142       Zr428   2.334   1_545  S
O142       Zr431   2.348   1_545  S
N143        C148   1.356   1_556  A
N143        C147   1.356   1_556  A
N143        H175   1.034       .  S
N144        C151   1.355   1_554  A
N144        C152   1.356   1_554  A
N145        C150   1.355       .  A
N145        C149   1.355       .  A
N145        H176   1.029   1_554  S
N146        C153   1.355   1_554  A
N146        C154   1.356   1_554  A
C147        C155   1.388       .  A
C147        C163   1.421       .  A
C148        C164   1.421   1_554  A
C148        C156   1.388       .  A
C149        C157   1.389       .  A
C149        C166   1.422       .  A
C150        C165   1.422       .  A
C150        C158   1.389       .  A
C151        C163   1.421   1_556  A
C151        C159   1.387       .  A
C152        C166   1.423   1_556  A
C152        C160   1.387       .  A
C153        C161   1.387       .  A
C153        C164   1.421       .  A
C154        C162   1.387       .  A
C154        C165   1.424   1_556  A
C155        C156   1.374       .  A
C155        H167   1.082       .  S
C156        H168   1.082       .  S
C157        C158   1.375       .  A
C157        H169   1.082       .  S
C158        H170   1.082       .  S
C159        C160   1.375       .  A
C159        H171   1.082       .  S
C160        H172   1.082       .  S
C161        C162   1.375       .  A
C161        H173   1.082       .  S
C162        H174   1.082       .  S
C163        C248   1.462       .  S
C164        C242   1.462   1_556  S
C165        C243   1.461       .  S
C166        C246   1.461       .  S
C177        C178   1.534       .  S
C177        C181   1.533       .  S
C177        C791   1.520       .  S
C177        C292   1.458       .  S
C178        H185   1.086       .  S
C178        C787   1.366       .  D
C179        C180   1.538       .  S
C179        C786   1.366       .  D
C179        C240   1.440       .  S
C180        C184   1.540       .  S
C180        C182   1.538       .  S
C180        H186   1.111       .  S
C181        H187   1.086       .  S
C181        C790   1.366       .  D
C182        C789   1.366       .  D
C182        C236   1.439       .  S
C183        C785   1.520       .  S
C183        H188   1.088       .  S
C183        C184   1.354       .  D
C184        C296   1.434       .  S
C189        C190   1.534       .  S
C189        C195   1.520       .  S
C189        C497   1.533       .  S
C189        C225   1.458       .  S
C190        H197   1.086       .  S
C190        C191   1.366       .  D
C191        C192   1.537       .  S
C191        C297   1.438       .  S
C192        C196   1.540       .  S
C192        C498   1.538       .  S
C192        H198   1.112       .  S
C193        C493   1.533   1_545  S
C193        H199   1.086       .  S
C193        C194   1.366       .  D
C194        C496   1.538   1_545  S
C194        C301   1.440       .  S
C195        H200   1.088       .  S
C195        C196   1.353       .  D
C196        C232   1.434       .  S
C201        C202   1.533       .  S
C201        C205   1.533       .  S
C201        C815   1.520       .  S
C201        C272   1.458       .  S
C202        H209   1.086       .  S
C202        C811   1.366       .  D
C203        C204   1.537       .  S
C203        C810   1.366       .  D
C203        C264   1.436       .  S
C204        C208   1.540       .  S
C204        C206   1.538       .  S
C204        H210   1.112       .  S
C205        H211   1.086       .  S
C205        C814   1.366       .  D
C206        C813   1.366       .  D
C206        C257   1.440       .  S
C207        C809   1.520       .  S
C207        H212   1.088       .  S
C207        C208   1.354       .  D
C208        C268   1.435       .  S
C213        C219   1.519       .  S
C213        C217   1.533       .  S
C213        C518   1.534       .  S
C213        C253   1.458       .  S
C214        C517   1.534   1_545  S
C214        H221   1.086       .  S
C214        C215   1.366       .  D
C215        C520   1.537   1_545  S
C215        C276   1.439       .  S
C216        C220   1.540       .  S
C216        C218   1.538       .  S
C216        C519   1.537       .  S
C216        H222   1.112       .  S
C217        H223   1.086       .  S
C217        C218   1.366       .  D
C218        C280   1.439       .  S
C219        H224   1.088       .  S
C219        C220   1.353       .  D
C220        C252   1.433       .  S
C225        C226   1.201       .  T
C226        C227   1.405       .  S
C227        C228   1.201       .  T
C229        C230   1.203       .  T
C230        C231   1.407       .  S
C231        C232   1.202       .  T
C233        C234   1.204       .  T
C234        C235   1.410       .  S
C235        C236   1.204       .  T
C237        C238   1.205       .  T
C238        C239   1.411       .  S
C239        C240   1.205       .  T
C241        C242   1.213       .  T
C243        C244   1.212       .  T
C245        C246   1.212       .  T
C247        C248   1.213       .  T
C249        C250   1.203       .  T
C250        C251   1.407       .  S
C251        C252   1.202       .  T
C253        C254   1.201       .  T
C254        C255   1.404       .  S
C255        C256   1.201       .  T
C257        C258   1.205       .  T
C258        C259   1.411       .  S
C259        C260   1.205       .  T
C261        C262   1.203       .  T
C262        C263   1.407       .  S
C263        C264   1.202       .  T
C265        C266   1.205       .  T
C266        C267   1.410       .  S
C267        C268   1.203       .  T
C269        C270   1.202       .  T
C270        C271   1.405       .  S
C271        C272   1.201       .  T
C273        C274   1.204       .  T
C274        C275   1.410       .  S
C275        C276   1.204       .  T
C277        C278   1.204       .  T
C278        C279   1.410       .  S
C279        C280   1.204       .  T
C281        C282   1.215       .  T
C283        C284   1.215       .  T
C285        C286   1.214       .  T
C287        C288   1.214       .  T
C289        C290   1.201       .  T
C290        C291   1.404       .  S
C291        C292   1.201       .  T
C293        C294   1.203       .  T
C294        C295   1.407       .  S
C295        C296   1.202       .  T
C297        C298   1.204       .  T
C298        C299   1.409       .  S
C299        C300   1.204       .  T
C301        C302   1.205       .  T
C302        C303   1.411       .  S
C303        C304   1.205       .  T
O305       Zr341   2.432       .  S
O305        C316   1.289       .  A
O306       Zr340   2.425       .  S
O306        C317   1.288       .  A
O307       Zr313   2.468       .  S
O307        C318   1.297       .  A
O308       Zr313   2.469       .  S
O308        C319   1.297       .  A
O309       Zr343   2.448       .  S
O309        C319   1.293       .  A
O310       Zr342   2.449       .  S
O310        C318   1.293       .  A
O311       Zr313   2.448       .  S
O311        C317   1.292       .  A
O312       Zr313   2.444       .  S
O312        C316   1.291       .  A
Zr313       O314   2.346       .  S
Zr313       O315   2.344       .  S
Zr313       O323   2.350       .  S
Zr313       O321   2.349       .  S
O314       Zr340   2.335       .  S
O314       Zr343   2.345       .  S
O315       Zr341   2.333       .  S
O315       Zr342   2.344       .  S
C316        C608   1.434       .  S
C317        C577   1.433       .  S
C318        C586   1.450       .  S
C319        C588   1.450       .  S
H320        O321   0.966       .  S
O321       Zr340   2.335       .  S
O321       Zr342   2.345       .  S
H322        O323   0.966       .  S
O323       Zr341   2.334       .  S
O323       Zr343   2.347       .  S
O324       Zr340   2.429       .  S
O324        C347   1.288       .  A
O325       Zr341   2.431       .  S
O325        C348   1.288       .  A
O326       Zr342   2.465       .  S
O326        C349   1.296       .  A
O327       Zr343   2.457       .  S
O327        C350   1.294       .  A
O328       Zr343   2.456       .  S
O328        C351   1.294       .  A
O329       Zr342   2.461       .  S
O329        C352   1.295       .  A
O330       Zr344   2.466       .  S
O330        C353   1.297       .  A
O331       Zr344   2.467       .  S
O331        C354   1.297       .  A
O332       Zr342   2.447       .  S
O332        C353   1.293       .  A
O333       Zr343   2.446       .  S
O333        C354   1.293       .  A
O334       Zr340   2.403       .  S
O334        C349   1.283       .  A
O335       Zr341   2.398       .  S
O335        C352   1.283       .  A
O336       Zr341   2.403       .  S
O336        C351   1.283       .  A
O337       Zr340   2.402       .  S
O337        C350   1.283       .  A
O338       Zr344   2.445       .  S
O338        C347   1.292       .  A
O339       Zr344   2.443       .  S
O339        C348   1.291       .  A
Zr340       O346   2.332       .  S
Zr340       O358   2.336       .  S
Zr341       O345   2.332       .  S
Zr341       O356   2.335       .  S
Zr342       O346   2.345       .  S
Zr342       O356   2.348       .  S
Zr343       O345   2.345       .  S
Zr343       O358   2.350       .  S
Zr344       O345   2.346       .  S
Zr344       O346   2.347       .  S
Zr344       O358   2.349       .  S
Zr344       O356   2.348       .  S
C347        C581   1.433       .  S
C348        C604   1.432       .  S
C349        C569   1.431       .  S
C350        C573   1.427       .  S
C351        C593   1.426       .  S
C352        C597   1.428       .  S
C353        C592   1.448       .  S
C354        C589   1.448       .  S
H355        O356   0.965       .  S
H357        O358   0.966       .  S
N359        C364   1.355       .  A
N359        H391   1.038       .  S
N360        C975   1.356       .  A
N360        C368   1.356       .  A
N361        C366   1.355       .  A
N361        H392   1.038       .  S
N362        C977   1.356       .  A
N362        C370   1.356       .  A
C363        C371   1.388       .  A
C363        C379   1.418       .  A
C364        C380   1.418       .  A
C364        C372   1.388       .  A
C365        C373   1.388       .  A
C365        C382   1.418       .  A
C366        C381   1.417       .  A
C366        C374   1.388       .  A
C367        N968   1.356       .  A
C367        C379   1.420       .  A
C367        C375   1.386       .  A
C368        C382   1.420       .  A
C368        C376   1.386       .  A
C369        N970   1.356       .  A
C369        C377   1.386       .  A
C369        C380   1.419       .  A
C370        C378   1.386       .  A
C370        C381   1.419       .  A
C371        H383   1.082       .  S
C372        H384   1.082       .  S
C373        H385   1.082       .  S
C374        H386   1.082       .  S
C375        C984   1.376   1_455  A
C375        H387   1.082       .  S
C376        C983   1.376       .  A
C376        H388   1.082       .  S
C377        C986   1.376   1_455  A
C377        H389   1.082       .  S
C378        C985   1.376       .  A
C378        H390   1.082       .  S
C379        C587   1.464       .  S
C380        C590   1.463       .  S
C381        C591   1.462       .  S
C382        C585   1.464       .  S
O393       Zr429   2.427       .  S
O393        C404   1.288       .  A
O394       Zr428   2.430       .  S
O394        C405   1.288       .  A
O395      Zr1009   2.464   1_455  S
O395        C406   1.296       .  A
O396       Zr401   2.465       .  S
O396        C407   1.296       .  A
O397       Zr431   2.444       .  S
O397        C407   1.292       .  A
O398       Zr430   2.446       .  S
O398        C406   1.292       .  A
O399       Zr401   2.441       .  S
O399        C405   1.291       .  A
O400       Zr401   2.442   1_556  S
O400        C404   1.291       .  A
Zr401      O1003   2.465       .  S
Zr401       O402   2.343       .  S
Zr401      O1011   2.346   1_554  S
Zr401       O411   2.348   1_554  S
Zr401      O1017   2.349       .  S
O402       Zr428   2.331       .  S
O402       Zr431   2.342       .  S
O403      Zr1009   2.346   1_456  S
O403      Zr1037   2.333   1_455  S
O403       Zr430   2.344   1_556  S
C404        C565   1.430       .  S
C405        C537   1.433       .  S
C406        C545   1.447       .  S
C407        C548   1.446       .  S
H408        O409   0.966       .  S
O409      Zr1009   2.349   1_455  S
O409      Zr1036   2.334   1_455  S
O409       Zr430   2.347       .  S
H410        O411   0.966       .  S
O411       Zr429   2.335       .  S
O411       Zr431   2.345   1_556  S
O412        C435   1.288       .  A
O413        C436   1.288       .  A
O414       Zr430   2.455   1_545  S
O414        C437   1.294       .  A
O415       Zr431   2.458       .  S
O415        C438   1.294       .  A
O416       Zr431   2.462   1_546  S
O416        C439   1.295       .  A
O417       Zr430   2.454   1_556  S
O417        C440   1.293       .  A
O418      Zr1040   2.465   1_455  S
O418        C441   1.296       .  A
O419       Zr432   2.464       .  S
O419        C442   1.296       .  A
O420        C441   1.292       .  A
O421        C442   1.292       .  A
O422      Zr1036   2.403   1_445  S
O422        C437   1.283       .  A
O423      Zr1037   2.404   1_455  S
O423        C440   1.283       .  A
O424       Zr429   2.401       .  S
O424        C439   1.283   1_565  A
O425       Zr428   2.403       .  S
O425        C438   1.283       .  A
O426       Zr432   2.448       .  S
O426        C435   1.293       .  A
O427       Zr432   2.450   1_556  S
O427        C436   1.293       .  A
Zr428      O1030   2.403   1_565  S
Zr428      O1017   2.334       .  S
Zr428       O738   2.332   1_565  S
Zr429      O1031   2.404       .  S
Zr429      O1011   2.333       .  S
Zr429       O748   2.336   1_565  S
Zr432      O1026   2.465       .  S
Zr432       O433   2.346   1_554  S
Zr432      O1042   2.345       .  S
Zr432       O446   2.349       .  S
Zr432      O1052   2.349   1_554  S
O434       Zr732   2.332   1_455  S
O434      Zr1040   2.345   1_455  S
C435        C541   1.434       .  S
C436        C564   1.435       .  S
C437        C532   1.427       .  S
C438        C533   1.429       .  S
C439        C553   1.429       .  S
C440        C560   1.426       .  S
C441        C551   1.446       .  S
C442        C549   1.445       .  S
H443        O444   0.966       .  S
O444       Zr733   2.336   1_455  S
O444      Zr1040   2.349   1_456  S
H445        O446   0.966       .  S
N447        C452   1.355   1_556  A
N447        C451   1.355   1_556  A
N447        H479   1.033       .  S
N448        C455   1.356   1_554  A
N448        C456   1.356   1_554  A
N449        C454   1.355   1_556  A
N449        C453   1.356   1_556  A
N449        H480   1.032       .  S
N450        C457   1.356   1_554  A
N450        C458   1.356   1_554  A
C451        C459   1.388       .  A
C451        C467   1.420       .  A
C452        C468   1.420       .  A
C452        C460   1.388       .  A
C453        C461   1.388       .  A
C453        C470   1.420       .  A
C454        C469   1.421       .  A
C454        C462   1.389       .  A
C455        C467   1.422   1_556  A
C455        C463   1.387       .  A
C456        C470   1.422   1_556  A
C456        C464   1.387       .  A
C457        C465   1.387       .  A
C457        C468   1.422   1_556  A
C458        C466   1.387       .  A
C458        C469   1.422   1_556  A
C459        C460   1.375       .  A
C459        H471   1.082       .  S
C460        H472   1.082       .  S
C461        C462   1.375       .  A
C461        H473   1.082       .  S
C462        H474   1.082       .  S
C463        C464   1.375       .  A
C463        H475   1.082       .  S
C464        H476   1.082       .  S
C465        C466   1.375       .  A
C465        H477   1.082       .  S
C466        H478   1.082       .  S
C467        C552   1.462       .  S
C468        C546   1.462       .  S
C469        C547   1.462       .  S
C470        C550   1.461       .  S
C481        C482   1.534       .  S
C481       C1095   1.520       .  S
C481        C485   1.533       .  S
C481        C596   1.458       .  S
C482        H489   1.086       .  S
C482       C1091   1.366       .  D
C483        C484   1.538       .  S
C483       C1090   1.366       .  D
C483        C544   1.440       .  S
C484        C488   1.540       .  S
C484        C486   1.538       .  S
C484        H490   1.111       .  S
C485        H491   1.086       .  S
C485       C1094   1.366       .  D
C486       C1093   1.366       .  D
C486        C540   1.439       .  S
C487       C1089   1.520       .  S
C487        H492   1.088       .  S
C487        C488   1.353       .  D
C488        C600   1.434       .  S
C493        C494   1.533       .  S
C493        C499   1.520       .  S
C493        C529   1.458   1_565  S
C494        H501   1.086       .  S
C494        C495   1.366       .  D
C495        C496   1.537       .  S
C495        C601   1.438       .  S
C496        C500   1.540       .  S
C496        H502   1.112       .  S
C497        H503   1.086       .  S
C497        C498   1.366       .  D
C498        C605   1.440       .  S
C499        H504   1.088       .  S
C499        C500   1.353       .  D
C500        C536   1.434       .  S
C505        C506   1.533       .  S
C505       C1119   1.520       .  S
C505        C509   1.533       .  S
C505        C576   1.458       .  S
C506        H513   1.086       .  S
C506       C1115   1.366       .  D
C507        C508   1.537       .  S
C507       C1114   1.366       .  D
C507        C568   1.437       .  S
C508        C512   1.540       .  S
C508        C510   1.538       .  S
C508        H514   1.112       .  S
C509        H515   1.086       .  S
C509       C1118   1.366       .  D
C510       C1117   1.366       .  D
C510        C561   1.440       .  S
C511       C1113   1.520       .  S
C511        H516   1.088       .  S
C511        C512   1.354       .  D
C512        C572   1.435       .  S
C517        C523   1.519       .  S
C517        C521   1.533       .  S
C517        C557   1.458       .  S
C518        H525   1.086       .  S
C518        C519   1.366       .  D
C519        C580   1.439       .  S
C520        C524   1.540       .  S
C520        C522   1.538       .  S
C520        H526   1.112       .  S
C521        H527   1.086       .  S
C521        C522   1.366       .  D
C522        C584   1.439       .  S
C523        H528   1.088       .  S
C523        C524   1.353       .  D
C524        C556   1.433   1_565  S
C529        C530   1.201       .  T
C530        C531   1.405       .  S
C531        C532   1.201       .  T
C533        C534   1.203       .  T
C534        C535   1.407       .  S
C535        C536   1.202       .  T
C537        C538   1.204       .  T
C538        C539   1.410       .  S
C539        C540   1.204       .  T
C541        C542   1.205       .  T
C542        C543   1.411       .  S
C543        C544   1.205       .  T
C545        C546   1.213       .  T
C547        C548   1.213       .  T
C549        C550   1.212       .  T
C551        C552   1.213       .  T
C553        C554   1.203       .  T
C554        C555   1.407       .  S
C555        C556   1.202       .  T
C557        C558   1.201       .  T
C558        C559   1.404       .  S
C559        C560   1.201       .  T
C561        C562   1.205       .  T
C562        C563   1.411       .  S
C563        C564   1.205       .  T
C565        C566   1.203       .  T
C566        C567   1.408       .  S
C567        C568   1.203       .  T
C569        C570   1.204       .  T
C570        C571   1.409       .  S
C571        C572   1.203       .  T
C573        C574   1.201       .  T
C574        C575   1.405       .  S
C575        C576   1.201       .  T
C577        C578   1.204       .  T
C578        C579   1.410       .  S
C579        C580   1.204       .  T
C581        C582   1.205       .  T
C582        C583   1.410       .  S
C583        C584   1.204       .  T
C585        C586   1.215       .  T
C587        C588   1.215       .  T
C589        C590   1.214       .  T
C591        C592   1.214       .  T
C593        C594   1.201       .  T
C594        C595   1.404       .  S
C595        C596   1.201       .  T
C597        C598   1.202       .  T
C598        C599   1.407       .  S
C599        C600   1.202       .  T
C601        C602   1.204       .  T
C602        C603   1.409       .  S
C603        C604   1.204       .  T
C605        C606   1.205       .  T
C606        C607   1.411       .  S
C607        C608   1.205       .  T
O609       Zr645   2.432       .  S
O609        C620   1.289       .  A
O610       Zr644   2.426       .  S
O610        C621   1.288       .  A
O611       Zr617   2.468       .  S
O611        C622   1.297       .  A
O612       Zr617   2.469       .  S
O612        C623   1.297       .  A
O613       Zr647   2.449       .  S
O613        C623   1.293       .  A
O614       Zr646   2.449       .  S
O614        C622   1.293       .  A
O615       Zr617   2.447       .  S
O615        C621   1.292       .  A
O616       Zr617   2.443       .  S
O616        C620   1.291       .  A
Zr617       O618   2.346       .  S
Zr617       O619   2.344       .  S
Zr617       O627   2.350       .  S
Zr617       O625   2.349       .  S
O618       Zr644   2.334       .  S
O618       Zr647   2.345       .  S
O619       Zr645   2.333       .  S
O619       Zr646   2.344       .  S
C620        C912   1.434       .  S
C621        C881   1.433       .  S
C622        C890   1.450       .  S
C623        C892   1.450       .  S
H624        O625   0.966       .  S
O625       Zr644   2.335       .  S
O625       Zr646   2.346       .  S
H626        O627   0.966       .  S
O627       Zr645   2.334       .  S
O627       Zr647   2.347       .  S
O628       Zr644   2.429       .  S
O628        C651   1.288       .  A
O629       Zr645   2.432       .  S
O629        C652   1.288       .  A
O630       Zr646   2.466       .  S
O630        C653   1.296       .  A
O631       Zr647   2.457       .  S
O631        C654   1.294       .  A
O632       Zr647   2.456       .  S
O632        C655   1.294       .  A
O633       Zr646   2.462       .  S
O633        C656   1.295       .  A
O634       Zr648   2.466       .  S
O634        C657   1.297       .  A
O635       Zr648   2.467       .  S
O635        C658   1.297       .  A
O636       Zr646   2.447       .  S
O636        C657   1.293       .  A
O637       Zr647   2.446       .  S
O637        C658   1.293       .  A
O638       Zr644   2.403       .  S
O638        C653   1.283       .  A
O639       Zr645   2.397       .  S
O639        C656   1.282       .  A
O640       Zr645   2.402       .  S
O640        C655   1.283       .  A
O641       Zr644   2.403       .  S
O641        C654   1.283       .  A
O642       Zr648   2.445       .  S
O642        C651   1.292       .  A
O643       Zr648   2.443       .  S
O643        C652   1.291       .  A
Zr644       O650   2.332       .  S
Zr644       O662   2.337       .  S
Zr645       O649   2.331       .  S
Zr645       O660   2.335       .  S
Zr646       O650   2.345       .  S
Zr646       O660   2.348       .  S
Zr647       O649   2.345       .  S
Zr647       O662   2.350       .  S
Zr648       O649   2.347       .  S
Zr648       O650   2.347       .  S
Zr648       O662   2.350       .  S
Zr648       O660   2.348       .  S
C651        C885   1.433       .  S
C652        C908   1.432       .  S
C653        C873   1.432       .  S
C654        C877   1.427       .  S
C655        C897   1.426       .  S
C656        C901   1.428       .  S
C657        C896   1.448       .  S
C658        C893   1.448       .  S
H659        O660   0.965       .  S
H661        O662   0.966       .  S
N663        C668   1.355       .  A
N663        C971   1.356       .  A
N663        H695   1.038       .  S
N664        C672   1.356   1_455  A
N665        C670   1.355       .  A
N665        C973   1.356       .  A
N665        H696   1.038       .  S
N666        C674   1.356   1_455  A
C667        N967   1.356   1_545  A
C667        C675   1.388       .  A
C667        C683   1.418       .  A
C668        C684   1.418       .  A
C668        C676   1.388       .  A
C669        N969   1.355   1_545  A
C669        C677   1.388       .  A
C669        C686   1.417       .  A
C670        C685   1.418       .  A
C670        C678   1.388       .  A
C671        C683   1.420       .  A
C671        C679   1.386       .  A
C672        C686   1.420       .  A
C672        C680   1.386       .  A
C673        C681   1.386       .  A
C673        C684   1.420       .  A
C674        C682   1.386       .  A
C674        C685   1.419       .  A
C675        C980   1.377   1_545  A
C675        H687   1.082       .  S
C676        C979   1.376       .  A
C676        H688   1.082       .  S
C677        C982   1.376   1_545  A
C677        H689   1.082       .  S
C678        C981   1.376       .  A
C678        H690   1.082       .  S
C679        H691   1.082       .  S
C680        H692   1.082       .  S
C681        H693   1.082       .  S
C682        H694   1.082       .  S
C683        C891   1.464       .  S
C684        C894   1.463       .  S
C685        C895   1.463       .  S
C686        C889   1.464       .  S
O697       Zr733   2.427       .  S
O697        C708   1.288       .  A
O698       Zr732   2.430       .  S
O698        C709   1.288       .  A
O699        C710   1.296       .  A
O700       Zr705   2.463       .  S
O700        C711   1.296       .  A
O701       Zr735   2.442   1_554  S
O701        C711   1.292       .  A
O702       Zr734   2.445       .  S
O702        C710   1.292       .  A
O703       Zr705   2.441       .  S
O703        C709   1.291       .  A
O704       Zr705   2.440   1_556  S
O704        C708   1.291       .  A
Zr705       O706   2.342       .  S
Zr705       O715   2.348   1_554  S
O706       Zr732   2.330       .  S
O706       Zr735   2.342   1_554  S
O707       Zr734   2.344   1_556  S
C708        C869   1.429       .  S
C709        C841   1.433       .  S
C710        C849   1.446       .  S
C711        C852   1.445       .  S
H712        O713   0.966       .  S
O713       Zr734   2.347       .  S
H714        O715   0.966       .  S
O715       Zr733   2.335       .  S
O715       Zr735   2.346       .  S
O716      Zr1036   2.427   1_545  S
O716        C739   1.288       .  A
O717      Zr1037   2.427   1_545  S
O717        C740   1.288       .  A
O718       Zr734   2.455       .  S
O718        C741   1.294       .  A
O719       Zr735   2.459   1_554  S
O719        C742   1.294       .  A
O720       Zr735   2.461       .  S
O720        C743   1.295       .  A
O721       Zr734   2.454   1_556  S
O721        C744   1.293       .  A
O722        C745   1.297       .  A
O723       Zr736   2.462       .  S
O723        C746   1.296       .  A
O724      Zr1038   2.446   1_545  S
O724        C745   1.292       .  A
O725      Zr1039   2.443   1_545  S
O725        C746   1.292       .  A
O726        C741   1.283       .  A
O727        C744   1.283       .  A
O728       Zr733   2.402       .  S
O728        C743   1.283       .  A
O729       Zr732   2.403       .  S
O729        C742   1.283       .  A
O730       Zr736   2.449       .  S
O730        C739   1.293       .  A
O731       Zr736   2.449   1_556  S
O731        C740   1.292       .  A
Zr732      O1020   2.427       .  S
Zr732      O1054   2.334       .  S
Zr733      O1021   2.427       .  S
Zr733      O1041   2.332       .  S
Zr734      O1028   2.446       .  S
Zr734      O1042   2.343       .  S
Zr734      O1052   2.349   1_554  S
Zr735      O1029   2.443   1_556  S
Zr735      O1041   2.344       .  S
Zr735      O1054   2.347   1_556  S
Zr736       O737   2.346   1_554  S
Zr736       O750   2.349       .  S
O737      Zr1037   2.332   1_545  S
O737      Zr1039   2.344   1_546  S
O738      Zr1038   2.343   1_545  S
C739        C845   1.434       .  S
C740        C868   1.434       .  S
C741        C836   1.426       .  S
C742        C837   1.429       .  S
C743        C857   1.429       .  S
C744        C864   1.426       .  S
C745        C855   1.447       .  S
C746        C853   1.445       .  S
H747        O748   0.966       .  S
O748      Zr1038   2.349   1_546  S
H749        O750   0.966       .  S
O750      Zr1036   2.334   1_545  S
O750      Zr1039   2.347   1_545  S
N751        C756   1.356   1_556  A
N751        C755   1.356   1_556  A
N751        H783   1.034       .  S
N752        C759   1.355   1_554  A
N752        C760   1.356   1_554  A
N753        C758   1.355       .  A
N753        C757   1.355       .  A
N753        H784   1.029   1_554  S
N754        C761   1.355   1_554  A
N754        C762   1.356   1_554  A
C755        C763   1.388       .  A
C755        C771   1.421       .  A
C756        C772   1.421       .  A
C756        C764   1.388       .  A
C757        C765   1.389       .  A
C757        C774   1.422       .  A
C758        C773   1.422       .  A
C758        C766   1.389       .  A
C759        C771   1.422   1_556  A
C759        C767   1.387       .  A
C760        C774   1.423   1_556  A
C760        C768   1.387       .  A
C761        C769   1.387       .  A
C761        C772   1.422   1_556  A
C762        C770   1.387       .  A
C762        C773   1.424   1_556  A
C763        C764   1.374       .  A
C763        H775   1.082       .  S
C764        H776   1.082       .  S
C765        C766   1.375       .  A
C765        H777   1.082       .  S
C766        H778   1.082       .  S
C767        C768   1.375       .  A
C767        H779   1.082       .  S
C768        H780   1.082       .  S
C769        C770   1.375       .  A
C769        H781   1.082       .  S
C770        H782   1.082       .  S
C771        C856   1.462       .  S
C772        C850   1.462       .  S
C773        C851   1.461       .  S
C774        C854   1.461       .  S
C785        C786   1.534       .  S
C785        C789   1.533       .  S
C785        C900   1.458       .  S
C786        H793   1.086       .  S
C787        C788   1.538   1_455  S
C787        C848   1.440   1_455  S
C788        C792   1.540       .  S
C788        C790   1.539   1_655  S
C788        H794   1.111       .  S
C789        H795   1.086       .  S
C790        C844   1.439   1_455  S
C791        H796   1.088       .  S
C791        C792   1.354   1_455  D
C792        C904   1.434       .  S
C797        C798   1.533       .  S
C797        C803   1.520       .  S
C797       C1105   1.533       .  S
C797        C833   1.458       .  S
C798        H805   1.086       .  S
C798        C799   1.366       .  D
C799        C800   1.537       .  S
C799        C905   1.438       .  S
C800        C804   1.540       .  S
C800       C1106   1.538       .  S
C800        H806   1.112       .  S
C801       C1101   1.533   1_545  S
C801        H807   1.086       .  S
C801        C802   1.366       .  D
C802       C1104   1.538   1_545  S
C802        C909   1.439       .  S
C803        H808   1.088       .  S
C803        C804   1.353       .  D
C804        C840   1.434       .  S
C809        C810   1.533       .  S
C809        C813   1.533       .  S
C809        C880   1.458       .  S
C810        H817   1.086       .  S
C811        C812   1.537   1_455  S
C811        C872   1.436   1_455  S
C812        C816   1.540       .  S
C812        C814   1.538   1_655  S
C812        H818   1.112       .  S
C813        H819   1.086       .  S
C814        C865   1.440   1_455  S
C815        H820   1.088       .  S
C815        C816   1.354   1_455  D
C816        C876   1.435       .  S
C821       C1126   1.534       .  S
C821        C827   1.519       .  S
C821        C825   1.533       .  S
C821        C861   1.458       .  S
C822       C1125   1.534   1_545  S
C822        H829   1.086       .  S
C822        C823   1.366       .  D
C823       C1128   1.537   1_545  S
C823        C884   1.439       .  S
C824       C1127   1.537       .  S
C824        C828   1.540       .  S
C824        C826   1.538       .  S
C824        H830   1.112       .  S
C825        H831   1.086       .  S
C825        C826   1.366       .  D
C826        C888   1.439       .  S
C827        H832   1.088       .  S
C827        C828   1.353       .  D
C828        C860   1.433       .  S
C833        C834   1.201       .  T
C834        C835   1.404       .  S
C835        C836   1.201       .  T
C837        C838   1.203       .  T
C838        C839   1.408       .  S
C839        C840   1.202       .  T
C841        C842   1.204       .  T
C842        C843   1.410       .  S
C843        C844   1.204       .  T
C845        C846   1.205       .  T
C846        C847   1.411       .  S
C847        C848   1.205       .  T
C849        C850   1.213       .  T
C851        C852   1.212       .  T
C853        C854   1.212       .  T
C855        C856   1.213       .  T
C857        C858   1.203       .  T
C858        C859   1.407       .  S
C859        C860   1.202       .  T
C861        C862   1.201       .  T
C862        C863   1.404       .  S
C863        C864   1.201       .  T
C865        C866   1.205       .  T
C866        C867   1.411       .  S
C867        C868   1.205       .  T
C869        C870   1.203       .  T
C870        C871   1.407       .  S
C871        C872   1.202       .  T
C873        C874   1.204       .  T
C874        C875   1.409       .  S
C875        C876   1.203       .  T
C877        C878   1.201       .  T
C878        C879   1.405       .  S
C879        C880   1.201       .  T
C881        C882   1.204       .  T
C882        C883   1.410       .  S
C883        C884   1.204       .  T
C885        C886   1.205       .  T
C886        C887   1.410       .  S
C887        C888   1.204       .  T
C889        C890   1.215       .  T
C891        C892   1.215       .  T
C893        C894   1.214       .  T
C895        C896   1.214       .  T
C897        C898   1.201       .  T
C898        C899   1.404       .  S
C899        C900   1.201       .  T
C901        C902   1.203       .  T
C902        C903   1.407       .  S
C903        C904   1.202       .  T
C905        C906   1.204       .  T
C906        C907   1.409       .  S
C907        C908   1.204       .  T
C909        C910   1.205       .  T
C910        C911   1.410       .  S
C911        C912   1.205       .  T
O913       Zr949   2.431       .  S
O913        C924   1.289       .  A
O914       Zr948   2.425       .  S
O914        C925   1.288       .  A
O915       Zr921   2.468       .  S
O915        C926   1.297       .  A
O916       Zr921   2.469       .  S
O916        C927   1.297       .  A
O917       Zr951   2.449       .  S
O917        C927   1.293       .  A
O918       Zr950   2.449       .  S
O918        C926   1.293       .  A
O919       Zr921   2.448       .  S
O919        C925   1.292       .  A
O920       Zr921   2.444       .  S
O920        C924   1.291       .  A
Zr921       O922   2.346       .  S
Zr921       O923   2.344       .  S
Zr921       O931   2.350       .  S
Zr921       O929   2.349       .  S
O922       Zr948   2.335       .  S
O922       Zr951   2.345       .  S
O923       Zr949   2.333       .  S
O923       Zr950   2.344       .  S
C924       C1216   1.434       .  S
C925       C1185   1.433       .  S
C926       C1194   1.450       .  S
C927       C1196   1.450       .  S
H928        O929   0.966       .  S
O929       Zr948   2.335       .  S
O929       Zr950   2.345       .  S
H930        O931   0.966       .  S
O931       Zr949   2.334       .  S
O931       Zr951   2.347       .  S
O932       Zr948   2.429       .  S
O932        C955   1.288       .  A
O933       Zr949   2.431       .  S
O933        C956   1.288       .  A
O934       Zr950   2.466       .  S
O934        C957   1.296       .  A
O935       Zr951   2.456       .  S
O935        C958   1.294       .  A
O936       Zr951   2.455       .  S
O936        C959   1.293       .  A
O937       Zr950   2.461       .  S
O937        C960   1.295       .  A
O938       Zr952   2.466       .  S
O938        C961   1.297       .  A
O939       Zr952   2.467       .  S
O939        C962   1.297       .  A
O940       Zr950   2.447       .  S
O940        C961   1.293       .  A
O941       Zr951   2.446       .  S
O941        C962   1.293       .  A
O942       Zr948   2.402       .  S
O942        C957   1.283       .  A
O943       Zr949   2.399       .  S
O943        C960   1.283       .  A
O944       Zr949   2.404       .  S
O944        C959   1.283       .  A
O945       Zr948   2.402       .  S
O945        C958   1.283       .  A
O946       Zr952   2.445       .  S
O946        C955   1.292       .  A
O947       Zr952   2.443       .  S
O947        C956   1.291       .  A
Zr948       O954   2.332       .  S
Zr948       O966   2.336       .  S
Zr949       O953   2.332       .  S
Zr949       O964   2.335       .  S
Zr950       O954   2.345       .  S
Zr950       O964   2.348       .  S
Zr951       O953   2.345       .  S
Zr951       O966   2.350       .  S
Zr952       O953   2.347       .  S
Zr952       O954   2.347       .  S
Zr952       O966   2.349       .  S
Zr952       O964   2.348       .  S
C955       C1189   1.433       .  S
C956       C1212   1.433       .  S
C957       C1177   1.431       .  S
C958       C1181   1.427       .  S
C959       C1201   1.427       .  S
C960       C1205   1.428       .  S
C961       C1200   1.448       .  S
C962       C1197   1.448       .  S
H963        O964   0.965       .  S
H965        O966   0.966       .  S
N967        C972   1.355       .  A
N967        H999   1.038       .  S
N968        C976   1.356   1_455  A
N969        C974   1.355       .  A
N969       H1000   1.038       .  S
N970        C978   1.356   1_455  A
C971        C979   1.388       .  A
C971        C987   1.418       .  A
C972        C988   1.418       .  A
C972        C980   1.388       .  A
C973        C981   1.388       .  A
C973        C990   1.418       .  A
C974        C989   1.417       .  A
C974        C982   1.388       .  A
C975        C987   1.420       .  A
C975        C983   1.386       .  A
C976        C990   1.420       .  A
C976        C984   1.386       .  A
C977        C985   1.386       .  A
C977        C988   1.419       .  A
C978        C986   1.386       .  A
C978        C989   1.419       .  A
C979        H991   1.082       .  S
C980        H992   1.082       .  S
C981        H993   1.082       .  S
C982        H994   1.082       .  S
C983        H995   1.082       .  S
C984        H996   1.082       .  S
C985        H997   1.082       .  S
C986        H998   1.082       .  S
C987       C1195   1.464       .  S
C988       C1198   1.463       .  S
C989       C1199   1.463       .  S
C990       C1193   1.464       .  S
O1001     Zr1037   2.427       .  S
O1001      C1012   1.288       .  A
O1002     Zr1036   2.430       .  S
O1002      C1013   1.288       .  A
O1003      C1014   1.296       .  A
O1004     Zr1009   2.464       .  S
O1004      C1015   1.296       .  A
O1005     Zr1039   2.444       .  S
O1005      C1015   1.292       .  A
O1006     Zr1038   2.446       .  S
O1006      C1014   1.292       .  A
O1007     Zr1009   2.441       .  S
O1007      C1013   1.291       .  A
O1008     Zr1009   2.441   1_556  S
O1008      C1012   1.291       .  A
Zr1009     O1010   2.343       .  S
Zr1009     O1019   2.348   1_554  S
O1010     Zr1036   2.330       .  S
O1010     Zr1039   2.342       .  S
O1011     Zr1038   2.344   1_556  S
C1012      C1173   1.430       .  S
C1013      C1145   1.433       .  S
C1014      C1153   1.447       .  S
C1015      C1156   1.446       .  S
H1016      O1017   0.966       .  S
O1017     Zr1038   2.347       .  S
H1018      O1019   0.966       .  S
O1019     Zr1037   2.335       .  S
O1019     Zr1039   2.346   1_556  S
O1020      C1043   1.288       .  A
O1021      C1044   1.288       .  A
O1022     Zr1038   2.455   1_545  S
O1022      C1045   1.293       .  A
O1023     Zr1039   2.459       .  S
O1023      C1046   1.294       .  A
O1024     Zr1039   2.461   1_546  S
O1024      C1047   1.295       .  A
O1025     Zr1038   2.454   1_556  S
O1025      C1048   1.293       .  A
O1026      C1049   1.297       .  A
O1027     Zr1040   2.463       .  S
O1027      C1050   1.296       .  A
O1028      C1049   1.293       .  A
O1029      C1050   1.292       .  A
O1030      C1045   1.283       .  A
O1031      C1048   1.283       .  A
O1032     Zr1037   2.402       .  S
O1032      C1047   1.283   1_565  A
O1033     Zr1036   2.404       .  S
O1033      C1046   1.283       .  A
O1034     Zr1040   2.449       .  S
O1034      C1043   1.293       .  A
O1035     Zr1040   2.449   1_556  S
O1035      C1044   1.292       .  A
Zr1040     O1041   2.346   1_554  S
Zr1040     O1054   2.349       .  S
C1043      C1149   1.434       .  S
C1044      C1172   1.434       .  S
C1045      C1140   1.426       .  S
C1046      C1141   1.429       .  S
C1047      C1161   1.429       .  S
C1048      C1168   1.426       .  S
C1049      C1159   1.447       .  S
C1050      C1157   1.445       .  S
H1051      O1052   0.966       .  S
H1053      O1054   0.966       .  S
N1055      C1060   1.356   1_556  A
N1055      C1059   1.355   1_556  A
N1055      H1087   1.032       .  S
N1056      C1063   1.356   1_554  A
N1056      C1064   1.356   1_554  A
N1057      C1062   1.356   1_556  A
N1057      C1061   1.356   1_556  A
N1057      H1088   1.033       .  S
N1058      C1065   1.356   1_554  A
N1058      C1066   1.356   1_554  A
C1059      C1067   1.388       .  A
C1059      C1075   1.421       .  A
C1060      C1076   1.421       .  A
C1060      C1068   1.388       .  A
C1061      C1069   1.388       .  A
C1061      C1078   1.420       .  A
C1062      C1077   1.421       .  A
C1062      C1070   1.388       .  A
C1063      C1075   1.422   1_556  A
C1063      C1071   1.387       .  A
C1064      C1078   1.421   1_556  A
C1064      C1072   1.387       .  A
C1065      C1073   1.387       .  A
C1065      C1076   1.422   1_556  A
C1066      C1074   1.387       .  A
C1066      C1077   1.422   1_556  A
C1067      C1068   1.375       .  A
C1067      H1079   1.082       .  S
C1068      H1080   1.082       .  S
C1069      C1070   1.375       .  A
C1069      H1081   1.082       .  S
C1070      H1082   1.082       .  S
C1071      C1072   1.375       .  A
C1071      H1083   1.082       .  S
C1072      H1084   1.082       .  S
C1073      C1074   1.375       .  A
C1073      H1085   1.082       .  S
C1074      H1086   1.082       .  S
C1075      C1160   1.462       .  S
C1076      C1154   1.463       .  S
C1077      C1155   1.462       .  S
C1078      C1158   1.461       .  S
C1089      C1090   1.534       .  S
C1089      C1093   1.533       .  S
C1089      C1204   1.458       .  S
C1090      H1097   1.086       .  S
C1091      C1092   1.538   1_455  S
C1091      C1152   1.440   1_455  S
C1092      C1096   1.540       .  S
C1092      C1094   1.539   1_655  S
C1092      H1098   1.111       .  S
C1093      H1099   1.086       .  S
C1094      C1148   1.439   1_455  S
C1095      H1100   1.088       .  S
C1095      C1096   1.354   1_455  D
C1096      C1208   1.434       .  S
C1101      C1102   1.533       .  S
C1101      C1107   1.520       .  S
C1101      C1137   1.458   1_565  S
C1102      H1109   1.086       .  S
C1102      C1103   1.366       .  D
C1103      C1104   1.537       .  S
C1103      C1209   1.438       .  S
C1104      C1108   1.540       .  S
C1104      H1110   1.112       .  S
C1105      H1111   1.086       .  S
C1105      C1106   1.366       .  D
C1106      C1213   1.440       .  S
C1107      H1112   1.088       .  S
C1107      C1108   1.353       .  D
C1108      C1144   1.434       .  S
C1113      C1114   1.533       .  S
C1113      C1117   1.533       .  S
C1113      C1184   1.458       .  S
C1114      H1121   1.086       .  S
C1115      C1116   1.537   1_455  S
C1115      C1176   1.436   1_455  S
C1116      C1120   1.540       .  S
C1116      C1118   1.538   1_655  S
C1116      H1122   1.112       .  S
C1117      H1123   1.086       .  S
C1118      C1169   1.440   1_455  S
C1119      H1124   1.088       .  S
C1119      C1120   1.354   1_455  D
C1120      C1180   1.435       .  S
C1125      C1131   1.519       .  S
C1125      C1129   1.533       .  S
C1125      C1165   1.458       .  S
C1126      H1133   1.086       .  S
C1126      C1127   1.367       .  D
C1127      C1188   1.439       .  S
C1128      C1132   1.540       .  S
C1128      C1130   1.538       .  S
C1128      H1134   1.112       .  S
C1129      H1135   1.086       .  S
C1129      C1130   1.366       .  D
C1130      C1192   1.439       .  S
C1131      H1136   1.088       .  S
C1131      C1132   1.353       .  D
C1132      C1164   1.433   1_565  S
C1137      C1138   1.201       .  T
C1138      C1139   1.404       .  S
C1139      C1140   1.201       .  T
C1141      C1142   1.203       .  T
C1142      C1143   1.408       .  S
C1143      C1144   1.202       .  T
C1145      C1146   1.204       .  T
C1146      C1147   1.410       .  S
C1147      C1148   1.204       .  T
C1149      C1150   1.205       .  T
C1150      C1151   1.411       .  S
C1151      C1152   1.205       .  T
C1153      C1154   1.213       .  T
C1155      C1156   1.213       .  T
C1157      C1158   1.212       .  T
C1159      C1160   1.213       .  T
C1161      C1162   1.203       .  T
C1162      C1163   1.407       .  S
C1163      C1164   1.202       .  T
C1165      C1166   1.201       .  T
C1166      C1167   1.405       .  S
C1167      C1168   1.201       .  T
C1169      C1170   1.205       .  T
C1170      C1171   1.411       .  S
C1171      C1172   1.205       .  T
C1173      C1174   1.203       .  T
C1174      C1175   1.407       .  S
C1175      C1176   1.203       .  T
C1177      C1178   1.204       .  T
C1178      C1179   1.409       .  S
C1179      C1180   1.203       .  T
C1181      C1182   1.201       .  T
C1182      C1183   1.404       .  S
C1183      C1184   1.201       .  T
C1185      C1186   1.205       .  T
C1186      C1187   1.410       .  S
C1187      C1188   1.204       .  T
C1189      C1190   1.205       .  T
C1190      C1191   1.410       .  S
C1191      C1192   1.204       .  T
C1193      C1194   1.215       .  T
C1195      C1196   1.215       .  T
C1197      C1198   1.214       .  T
C1199      C1200   1.214       .  T
C1201      C1202   1.201       .  T
C1202      C1203   1.405       .  S
C1203      C1204   1.201       .  T
C1205      C1206   1.203       .  T
C1206      C1207   1.407       .  S
C1207      C1208   1.202       .  T
C1209      C1210   1.204       .  T
C1210      C1211   1.409       .  S
C1211      C1212   1.204       .  T
C1213      C1214   1.205       .  T
C1214      C1215   1.411       .  S
C1215      C1216   1.205       .  T
