geometry optimzed in LAMMPS
_audit_creation_date              2020-11-30 
_audit_creation_method            'lammps2cif' 
_symmetry_space_group_name_H-M    'P1' 
_symmetry_Int_Tables_number       1 
_symmetry_cell_setting            triclinic 
loop_ 
_symmetry_equiv_pos_as_xyz 
  x,y,z 
_cell_length_a                    53.2759033 
_cell_length_b                    53.42447518289754 
_cell_length_c                    35.693589151004325 
_cell_angle_alpha                 91.18311786198556 
_cell_angle_beta                  90.0326095314666 
_cell_angle_gamma                 119.93934752052931 
loop_ 
_atom_site_label 
_atom_site_type_symbol 
_atom_site_fract_x 
_atom_site_fract_y 
_atom_site_fract_z 
_atom_site_charge 
O1          O  0.22554404  0.18571014  0.33214360    -0.73500
O2          O  0.19333269  0.16244130  0.28473471    -0.52400
C3          C  0.20128712  0.16554019  0.31916962     0.80200
O4          O  0.25289313  0.30076612  0.35484536    -0.58100
O5          O  0.29166097  0.32867687  0.31825422    -0.51100
C6          C  0.27862121  0.32281503  0.34961296     0.72200
O7          O  0.17239732  0.20962953  0.32951019    -0.72700
O8          O  0.15914097  0.18075386  0.27697051    -0.53200
C9          C  0.15514964  0.18575697  0.31090605     0.78200
O10         O  0.30851063  0.26197007  0.34160946    -0.57800
O11         O  0.32341537  0.30598859  0.31636084    -0.50900
C12         C  0.32432371  0.28966265  0.34138605     0.74800
Zr13       Zr  0.26830745  0.22428451  0.30396586     2.54700
O14         O  0.28038293  0.20701096  0.36006375    -0.78400
O15         O  0.29110874  0.19696841  0.28215433    -0.91800
Zr16       Zr  0.21578772  0.25848481  0.31489713     2.64700
O17         O  0.19831984  0.25550892  0.37866440    -0.96700
O18         O  0.18677794  0.28148410  0.30521068    -0.78800
O19         O  0.22475834  0.22237235  0.29790053    -0.82200
O20         O  0.26318696  0.26486006  0.31710232    -2.16900
O21         O  0.32173536  0.28659015  0.18350340    -0.65600
O22         O  0.33205413  0.31817022  0.23306394    -0.50100
C23         C  0.33738902  0.31165939  0.20060602     0.73200
O24         O  0.19050167  0.23523483  0.16219006    -0.58500
O25         O  0.16926271  0.19308089  0.19362708    -0.50400
C26         C  0.17198710  0.20822523  0.16502757     0.75000
O27         O  0.26402504  0.32109392  0.18648336    -0.69900
O28         O  0.29958332  0.33865985  0.23136071    -0.48500
C29         C  0.28964448  0.33932148  0.19898817     0.76400
O30         O  0.23556859  0.19973963  0.15538834    -0.65200
O31         O  0.20152176  0.16884616  0.19528240    -0.52400
C32         C  0.21168090  0.17606275  0.16253752     0.74800
Zr33       Zr  0.27553525  0.23864757  0.19539368     2.77500
O34         O  0.29016324  0.23999651  0.13041552    -0.95900
O35         O  0.30195414  0.21264301  0.20176163    -0.76800
Zr36       Zr  0.22402932  0.27363428  0.20537308     2.70100
O37         O  0.21757165  0.29291914  0.14712822    -0.78000
O38         O  0.18918326  0.28862848  0.22234201    -0.97100
Zr39       Zr  0.20328941  0.20119102  0.24303067     2.21500
Zr40       Zr  0.28850684  0.29710269  0.26789493     2.11100
O41         O  0.27097177  0.27955959  0.20583562    -2.45800
O42         O  0.23095678  0.23486018  0.20117498    -0.77800
O43         O  0.29603868  0.25702970  0.25649516    -0.70000
O44         O  0.19581159  0.24127634  0.25336434    -2.30900
O45         O  0.24975839  0.20443781  0.24302455    -2.27200
O46         O  0.24160362  0.29287468  0.26704383    -0.71800
H47         H  0.27051727  0.27105360  0.34222035     0.80200
H48         H  0.17553297  0.23568287  0.25157268     0.81300
H49         H  0.28164937  0.29109380  0.18510790     0.83600
H50         H  0.24828242  0.18583456  0.23831142     0.81200
H51         H  0.16659712  0.26594904  0.30933137     0.44200
H52         H  0.19923100  0.30955170  0.21732821     0.43200
H53         H  0.22735008  0.28730239  0.12788827     0.42800
H54         H  0.29169782  0.25788027  0.12051256     0.40800
H55         H  0.32147451  0.22751743  0.21077105     0.43900
H56         H  0.27997765  0.17793977  0.29402836     0.38700
H57         H  0.27170347  0.21244369  0.38097495     0.44800
H58         H  0.21390051  0.25656951  0.39491485     0.41200
H59         H  0.31040666  0.24398699  0.13188208     0.46200
H60         H  0.31023428  0.20633475  0.29501085     0.44900
H61         H  0.19876574  0.27406887  0.38341022     0.45000
H62         H  0.17393677  0.27970947  0.20260578     0.45400
O63         O  0.02497311  0.20514772  0.31803430    -0.73500
O64         O  0.00913064  0.17550747  0.26609723    -0.52400
C65         C  0.01792263  0.18099562  0.30008960     0.80200
O66         O  0.44514014  0.26237757  0.32103235    -0.58100
O67         O  0.47566424  0.30559034  0.29466788    -0.51100
C68         C  0.45783746  0.29014496  0.31970972     0.72200
O69         O  0.44809609  0.18254564  0.31661215    -0.72700
O70         O  0.45667410  0.15794967  0.27069587    -0.53200
C71         C  0.45146191  0.16150435  0.30483579     0.78200
O72         O  0.03922888  0.29862499  0.33832052    -0.57800
O73         O  0.03023766  0.32654285  0.29909376    -0.50900
C74         C  0.03721696  0.32136257  0.33098090     0.74800
Zr75       Zr  0.03170186  0.25399661  0.30230160     2.54700
O76         O  0.03896612  0.24968646  0.36872687    -0.78400
O77         O  0.08405537  0.27482074  0.30066055    -0.91800
Zr78       Zr  0.44601944  0.22232691  0.28645292     2.64700
O79         O  0.41408236  0.20465885  0.34032840    -0.96700
O80         O  0.39643737  0.19685622  0.26227622    -0.78800
O81         O  0.48668427  0.21863787  0.28339000    -0.82200
O82         O  0.49210589  0.26245044  0.30063564    -2.16900
O83         O  0.05259573  0.31498182  0.16961799    -0.65600
O84         O  0.03529035  0.33443928  0.21265329    -0.50100
C85         C  0.04577140  0.33389854  0.18056317     0.73200
O86         O  0.46018086  0.19845957  0.13732653    -0.58500
O87         O  0.45850564  0.16594774  0.17849670    -0.50400
C88         C  0.45874702  0.17416439  0.14508999     0.75000
O89         O  0.46088768  0.28454957  0.16287998    -0.69900
O90         O  0.48172426  0.31623402  0.21236417    -0.48500
C91         C  0.47051224  0.30979421  0.17955430     0.76400
O92         O  0.03919828  0.22902702  0.15303611    -0.65200
O93         O  0.01418155  0.18661346  0.18344762    -0.52400
C94         C  0.02901748  0.20177849  0.15605430     0.74800
Zr95       Zr  0.04336022  0.26823732  0.19325991     2.77500
O96         O  0.07411027  0.28135578  0.13815675    -0.95900
O97         O  0.09176358  0.28556474  0.21901264    -0.76800
Zr98       Zr  0.45734886  0.23615545  0.17730799     2.70100
O99         O  0.44495672  0.23929659  0.11254037    -0.78000
O100        O  0.40474673  0.20945712  0.18068663    -0.97100
Zr101      Zr  0.48745471  0.19649589  0.22950349     2.21500
Zr102      Zr  0.50191645  0.29422625  0.24961784     2.11100
O103        O  0.50333827  0.27587211  0.18876934    -2.45800
O104        O  0.49691634  0.23075754  0.18709404    -0.77800
O105        O  0.04345101  0.28829512  0.25355642    -0.70000
O106        O  0.44558683  0.20185396  0.22609650    -2.30900
O107        O  0.03549302  0.23545194  0.24218267    -2.27200
O108        O  0.45393712  0.25507299  0.23730602    -0.71800
H109        H  0.49120720  0.26964722  0.32523624     0.80200
H110        H  0.42821435  0.18358648  0.22089687     0.81300
H111        H  0.50476469  0.28695224  0.16725903     0.83600
H112        H  0.04969696  0.22914969  0.24210625     0.81200
H113        H  0.38864672  0.17665201  0.27011944     0.44200
H114        H  0.39875761  0.22331710  0.17249985     0.43200
H115        H  0.46376206  0.24887587  0.09952601     0.42800
H116        H  0.06263325  0.28350461  0.11793760     0.40800
H117        H  0.10167590  0.30680570  0.21652276     0.43900
H118        H  0.08719213  0.25847965  0.30609130     0.38700
H119        H  0.01917382  0.23853812  0.37884899     0.44800
H120        H  0.42661053  0.21488070  0.36236324     0.41200
H121        H  0.09022854  0.30121416  0.14345939     0.46200
H122        H  0.09124171  0.28744483  0.32343173     0.44900
H123        H  0.40098269  0.21274585  0.33816726     0.45000
H124        H  0.39855960  0.19495665  0.15988982     0.45400
O125        O  0.19340408  0.45579132  0.33861768    -0.73500
O126        O  0.16644486  0.46848917  0.30285014    -0.52400
C127        C  0.17200727  0.46020471  0.33346116     0.80200
O128        O  0.30400234  0.04233950  0.34907749    -0.58100
O129        O  0.32332946  0.01919442  0.31577307    -0.51100
C130        C  0.32227249  0.03324465  0.34472824     0.72200
O131        O  0.21715421  0.03555889  0.33751644    -0.72700
O132        O  0.18653681  0.02701704  0.28822696    -0.53200
C133        C  0.19334943  0.03211502  0.32325062     0.78200
O134        O  0.27137717  0.44850004  0.31365829    -0.57800
O135        O  0.30748080  0.47063761  0.27111583    -0.50900
C136        C  0.29703360  0.45668272  0.30100188     0.74800
Zr137      Zr  0.22906041  0.45391427  0.29657562     2.54700
O138        O  0.21934685  0.42416196  0.35143378    -0.78400
O139        O  0.19925906  0.40507958  0.27087995    -0.91800
Zr140      Zr  0.26275687  0.04043345  0.31339903     2.64700
O141        O  0.26357450  0.05625230  0.37822168    -0.96700
O142        O  0.28721141  0.09265583  0.30698751    -0.78800
O143        O  0.23112074  0.49749381  0.30300437    -0.82200
O144        O  0.27391361  0.49715431  0.30267885    -2.16900
O145        O  0.26199627  0.45952444  0.15362979    -0.65600
O146        O  0.30392348  0.48013838  0.18834635    -0.50100
C147        C  0.28885637  0.46685550  0.15890016     0.73200
O148        O  0.24259952  0.04892607  0.16221870    -0.58500
O149        O  0.20526236  0.04146826  0.19952285    -0.50400
C150        C  0.21766979  0.04678379  0.16779311     0.75000
O151        O  0.32726600  0.05345713  0.19137693    -0.69900
O152        O  0.33796466  0.02918406  0.23474588    -0.48500
C153        C  0.34351154  0.04420926  0.20545257     0.76400
O154        O  0.18242339  0.46860513  0.16520713    -0.65200
O155        O  0.16289009  0.48108446  0.21384729    -0.52400
C156        C  0.16301005  0.47362644  0.17933159     0.74800
Zr157      Zr  0.22389784  0.46420434  0.18805328     2.77500
O158        O  0.21259634  0.45505655  0.12121081    -0.95900
O159        O  0.19387927  0.41190777  0.19029127    -0.76800
Zr160      Zr  0.27992090  0.05052317  0.20524844     2.70100
O161        O  0.30130541  0.07870056  0.14954481    -0.78000
O162        O  0.30091774  0.10019452  0.22838355    -0.97100
Zr163      Zr  0.20167354  0.50157066  0.26112549     2.21500
Zr164      Zr  0.29564301  0.50316068  0.24256308     2.11100
O165        O  0.26893667  0.50757138  0.19187037    -2.45800
O166        O  0.22277424  0.50718353  0.20134157    -0.77800
O167        O  0.25096185  0.45831155  0.23722548    -0.70000
O168        O  0.24843739  0.04924531  0.25399441    -2.30900
O169        O  0.20047088  0.45698930  0.24719727    -2.27200
O170        O  0.29551118  0.04439999  0.26534615    -0.71800
H171        H  0.28374458  0.49493059  0.32379421     0.80200
H172        H  0.24606714  0.06609738  0.25451824     0.81300
H173        H  0.27741451  0.50891642  0.16766835     0.83600
H174        H  0.18089936  0.44093020  0.24644396     0.81200
H175        H  0.27285462  0.09809609  0.31552814     0.44200
H176        H  0.32174755  0.10919901  0.22232416     0.43200
H177        H  0.30033951  0.06448021  0.13051806     0.42800
H178        H  0.22935456  0.47094315  0.10856741     0.40800
H179        H  0.17506733  0.40772349  0.17929584     0.43900
H180        H  0.17999026  0.39817499  0.28214774     0.38700
H181        H  0.22915821  0.43810794  0.37247629     0.44800
H182        H  0.26361065  0.04109965  0.39368676     0.41200
H183        H  0.21363172  0.43747546  0.11482712     0.46200
H184        H  0.20684429  0.39362751  0.28295315     0.44900
H185        H  0.28307169  0.07337810  0.38213682     0.45000
H186        H  0.29326636  0.10919573  0.21124370     0.45400
C187        C  0.03131143  0.07238155  0.35114720     0.04900
C188        C  0.06238281  0.08894609  0.34726238    -0.11200
C189        C  0.07641927  0.11762936  0.33330397     0.02400
C190        C  0.05976625  0.12923306  0.32177457    -0.09800
C191        C  0.03039121  0.11566194  0.32842631     0.04900
C192        C  0.01578368  0.08703368  0.34217400    -0.09200
H193        H  0.07561044  0.08069561  0.35863288     0.10500
H194        H  0.07055793  0.15110728  0.31121971     0.08000
H195        H  0.99320547  0.07751273  0.34972171     0.07900
C196        C  0.06293776  0.12055803  0.07409890     0.04900
C197        C  0.04612064  0.13376554  0.07931898    -0.11200
C198        C  0.05923704  0.16260628  0.09140784     0.02400
C199        C  0.08893170  0.17840692  0.09791442    -0.09800
C200        C  0.10563450  0.16522317  0.09422524     0.04900
C201        C  0.09293492  0.13648025  0.08123022    -0.09200
H202        H  0.02298257  0.12150563  0.07488098     0.10500
H203        H  0.09861524  0.20026081  0.10957836     0.08000
H204        H  0.10613401  0.12659665  0.07727759     0.07900
C205        C  0.04615366  0.43123197  0.07934986     0.04900
C206        C  0.07456728  0.45241596  0.09302513    -0.11200
C207        C  0.09019068  0.44485774  0.11800181     0.02400
C208        C  0.07806084  0.41665284  0.12865630    -0.09800
C209        C  0.05079114  0.39574309  0.11630195     0.04900
C210        C  0.03420355  0.40260060  0.09199125    -0.09200
H211        H  0.08431463  0.47469974  0.08471706     0.10500
H212        H  0.09017380  0.41082440  0.14774550     0.08000
H213        H  0.01275981  0.38605006  0.08284886     0.07900
C214        C  0.44719084  0.05541557  0.10318728     0.04900
C215        C  0.45853948  0.08490211  0.09321384    -0.11200
C216        C  0.44766270  0.10180833  0.11015148     0.02400
C217        C  0.42557383  0.08917320  0.13578719    -0.09800
C218        C  0.41339829  0.06039819  0.14454734     0.04900
C219        C  0.42408578  0.04323957  0.12874421    -0.09200
H220        H  0.47501606  0.09418489  0.07213304     0.10500
H221        H  0.41703687  0.10196267  0.14872996     0.08000
H222        H  0.41408455  0.02057969  0.13541980     0.07900
C223        C  0.44256510  0.06960156  0.42620897     0.04900
C224        C  0.45731303  0.09469369  0.40418602    -0.11200
C225        C  0.44107695  0.10343768  0.38185153     0.02400
C226        C  0.41111482  0.08791058  0.38156539    -0.09800
C227        C  0.39614008  0.06268250  0.40085009     0.04900
C228        C  0.41151792  0.05339883  0.42329878    -0.09200
H229        H  0.48075769  0.10688186  0.40401994     0.10500
H230        H  0.39906151  0.09477595  0.36397278     0.08000
H231        H  0.39919724  0.03318507  0.43758349     0.07900
C232        C  0.11246871  0.06576315  0.42287008     0.04900
C233        C  0.12595941  0.09396444  0.40891233    -0.11200
C234        C  0.14861839  0.10236120  0.38327373     0.02400
C235        C  0.15765236  0.08342883  0.37111161    -0.09800
C236        C  0.14489572  0.05564600  0.38369941     0.04900
C237        C  0.12224461  0.04646591  0.40978711    -0.09200
H238        H  0.11895717  0.10902229  0.41768120     0.10500
H239        H  0.17508873  0.09052381  0.35093692     0.08000
H240        H  0.11205069  0.02441726  0.41919332     0.07900
C241        C  0.05773266  0.44050808  0.40069767     0.04900
C242        C  0.04204696  0.41012464  0.39323646    -0.11200
C243        C  0.05712187  0.39477332  0.38637055     0.02400
C244        C  0.08709517  0.40969226  0.38632727    -0.09800
C245        C  0.10260578  0.43939884  0.39119931     0.04900
C246        C  0.08829360  0.45494265  0.39861212    -0.09200
H247        H  0.01875643  0.39867209  0.39377751     0.10500
H248        H  0.09862064  0.39814605  0.37984617     0.08000
H249        H  0.10088288  0.47815820  0.40322015     0.07900
C250        C  0.11629172  0.05506606  0.09684091     0.04900
C251        C  0.13445628  0.04281370  0.09993796    -0.11200
C252        C  0.16433808  0.06054085  0.10718797     0.02400
C253        C  0.17646568  0.09022341  0.10985819    -0.09800
C254        C  0.15942928  0.10304452  0.10851658     0.04900
C255        C  0.12901837  0.08547987  0.10266463    -0.09200
H256        H  0.12534935  0.01964365  0.09680875     0.10500
H257        H  0.19953406  0.10353187  0.11591023     0.08000
H258        H  0.11552818  0.09517306  0.10185805     0.07900
O259        O  0.03837839  0.06975193  0.08215834    -0.84700
O260        O  0.00367379  0.02209708  0.38033990    -0.84900
O261        O  0.07084448  0.06673411  0.45115030    -0.86500
O262        O  0.98575844  0.06788070  0.44942291    -0.85300
O263        O  0.44033460  0.03608509  0.46953575    -0.84900
O264        O  0.08238117  0.03224614  0.46634894    -0.86300
O265        O  0.02775950  0.06561466  0.41327829    -0.84700
O266        O  0.04809268  0.08875895  0.02285204    -0.84300
Zr267      Zr  0.02044968  0.05234551  0.47521780     2.84300
O268        O  0.47544042  0.01564118  0.45213549    -1.06300
O269        O  0.04378699  0.03273948  0.02586437    -1.07000
C270        C  0.04916087  0.09094995  0.05891959     1.08400
C271        C  0.01966412  0.05098656  0.38276663     1.08300
C272        C  0.08740557  0.05504024  0.44915867     1.11300
C273        C  0.45773178  0.05780416  0.45015918     1.09100
H274        H  0.03717450  0.01832514  0.42949418     0.34700
O275        O  0.02470892  0.01347620  0.45089496    -1.27200
H276        H  0.49417549  0.05013237  0.03256709     0.34300
O277        O  0.99560976  0.03338581  0.02554864    -1.28900
O278        O  0.46317885  0.42265215  0.42137415    -0.84700
O279        O  0.48303889  0.47395568  0.12193105    -0.86200
O280        O  0.05649389  0.46860593  0.45065421    -0.84800
O281        O  0.41498647  0.46742496  0.45322551    -0.84800
O282        O  0.44471157  0.02513628  0.05198939    -0.84500
O283        O  0.08552181  0.02362652  0.04941178    -0.84300
O284        O  0.00225150  0.42951950  0.05213320    -0.84700
O285        O  0.41635436  0.43051588  0.05349207    -0.84200
O286        O  0.04788356  0.46263320  0.03356175    -0.85200
O287        O  0.40358994  0.46341262  0.03522736    -0.84400
O288        O  0.02240316  0.45736025  0.40411979    -0.84800
O289        O  0.06370153  0.03617131  0.09588754    -0.84500
O290        O  0.47815190  0.03430607  0.09890869    -0.84200
O291        O  0.43819000  0.45789677  0.40533078    -0.84600
O292        O  0.45356160  0.40302218  0.48041393    -0.84900
O293        O  0.45801215  0.43063559  0.08875363    -0.86200
Zr294      Zr  0.48956949  0.47589444  0.42633901     2.83100
Zr295      Zr  0.01130704  0.01642901  0.07699988     2.83500
Zr296      Zr  0.04988769  0.99571355  0.00088860     2.84100
Zr297      Zr  0.45105492  0.99607727  0.00243718     2.83400
Zr298      Zr  0.46627624  0.44450527  0.02754807     2.84200
O299        O  0.45989095  0.48218817  0.05139151    -1.06800
O300        O  0.00598380  0.45900606  0.47694585    -1.06300
C301        C  0.45238073  0.40121318  0.44421349     1.08400
C302        C  0.46756545  0.44501522  0.11918995     1.11000
C303        C  0.04435260  0.45647115  0.41909472     1.08600
C304        C  0.41508281  0.45580670  0.42103961     1.08900
C305        C  0.45713159  0.03674627  0.08388016     1.08500
C306        C  0.08631305  0.03693157  0.08032870     1.08000
C307        C  0.03057131  0.44068020  0.05258622     1.08500
C308        C  0.39888308  0.44120238  0.05357358     1.08000
H309        H  0.01842652  0.47767489  0.07238494     0.34700
O310        O  0.01043352  0.48240595  0.05126696    -1.27900
H311        H  0.43931535  0.44212030  0.47182970     0.34700
O312        O  0.45767508  0.45864845  0.47872498    -1.29300
C313        C  0.37188416  0.42937480  0.07713626     0.04900
C314        C  0.35669767  0.44527698  0.07970654    -0.11200
C315        C  0.33188905  0.43571478  0.10192542     0.03700
C316        C  0.32183059  0.41047653  0.12104150    -0.09800
C317        C  0.33700213  0.39569434  0.12150099     0.04900
C318        C  0.36201980  0.40461835  0.09945452    -0.09200
H319        H  0.36446750  0.46548700  0.06545858     0.10500
H320        H  0.30280898  0.40335414  0.13849628     0.08000
H321        H  0.37376575  0.39293093  0.10024139     0.07900
C322        C  0.38609841  0.43873306  0.40172346     0.04900
C323        C  0.37554881  0.45346202  0.38015546    -0.11200
C324        C  0.34693455  0.43868914  0.36626668     0.02400
C325        C  0.32874429  0.40993840  0.37381007    -0.09800
C326        C  0.33816186  0.39434506  0.39396660     0.04900
C327        C  0.36709084  0.40864609  0.40839909    -0.09200
H328        H  0.38929495  0.47623930  0.37477339     0.10500
H329        H  0.30674659  0.39909696  0.36244902     0.08000
H330        H  0.37452992  0.39687306  0.42494808     0.07900
C331        C  0.45904599  0.42295664  0.14978730     0.04900
C332        C  0.47408280  0.40678387  0.15022562    -0.11200
C333        C  0.45980216  0.37716980  0.16049328     0.02400
C334        C  0.43147825  0.36411408  0.17212758    -0.09800
C335        C  0.41535656  0.37773947  0.17020108     0.04900
C336        C  0.42894268  0.40727970  0.15971467    -0.09200
H337        H  0.49560129  0.41618887  0.13860791     0.10500
H338        H  0.42077659  0.34152079  0.17992023     0.08000
H339        H  0.41556097  0.41697660  0.15530331     0.07900
C340        C  0.43675580  0.37188705  0.42784935     0.04900
C341        C  0.40636303  0.35727867  0.42495084    -0.11200
C342        C  0.39160907  0.32932815  0.40912552     0.02400
C343        C  0.40671680  0.31571703  0.39760799    -0.09800
C344        C  0.43667899  0.33059989  0.39815845     0.04900
C345        C  0.45197685  0.35853608  0.41396475    -0.09200
H346        H  0.39453133  0.36797402  0.43343623     0.10500
H347        H  0.39515217  0.29458695  0.38367799     0.08000
H348        H  0.47530526  0.36995633  0.41467101     0.07900
C349        C  0.30367370  0.45993531  0.12994809    -0.11500
C350        C  0.31781093  0.45223405  0.11135048    -0.13000
C351        C  0.38854092  0.04990218  0.16799804    -0.11500
C352        C  0.36841978  0.04814335  0.18546693    -0.13000
C353        C  0.34352137  0.03909252  0.37394351    -0.11500
C354        C  0.36542159  0.04622059  0.39213928    -0.13000
C355        C  0.31704414  0.45311631  0.32362473    -0.11500
C356        C  0.33429987  0.45099800  0.34303392    -0.13000
C357        C  0.20108997  0.04815661  0.13705576    -0.11500
C358        C  0.18308743  0.04986456  0.11853146    -0.13000
C359        C  0.13979714  0.47066596  0.15459284    -0.11500
C360        C  0.11854017  0.46403597  0.13493053    -0.13000
C361        C  0.15317073  0.45685230  0.36367309    -0.11500
C362        C  0.13252830  0.45280154  0.38173527    -0.13000
C363        C  0.15675868  0.03859510  0.36774394    -0.11500
C364        C  0.17267316  0.03369959  0.34836141    -0.13000
C365        C  0.04427963  0.35207658  0.15283246    -0.11500
C366        C  0.04190834  0.36818303  0.13186169    -0.13000
C367        C  0.47030162  0.33402945  0.16155518    -0.11500
C368        C  0.47053256  0.35679334  0.15684956    -0.13000
C369        C  0.44990499  0.31857283  0.37486589    -0.11500
C370        C  0.45382058  0.30543948  0.35008602    -0.13000
C371        C  0.04108933  0.34260511  0.35974149    -0.11500
C372        C  0.04415708  0.36443917  0.37539319    -0.13000
C373        C  0.45906915  0.15471824  0.11612470    -0.11500
C374        C  0.45777477  0.13236359  0.10488531    -0.13000
C375        C  0.04264946  0.17466176  0.10590578    -0.11500
C376        C  0.03472148  0.18708128  0.12669058    -0.13000
C377        C  0.01816645  0.15699785  0.31828799    -0.11500
C378        C  0.01867553  0.13502684  0.32545521    -0.13000
C379        C  0.45260441  0.12686525  0.35608673    -0.11500
C380        C  0.45241372  0.14258233  0.33228341    -0.13000
C381        C  0.29624228  0.34214951  0.38020095    -0.11500
C382        C  0.31697487  0.36353581  0.39427355    -0.13000
C383        C  0.34359956  0.30376620  0.37222247    -0.11500
C384        C  0.36283957  0.31667470  0.39462303    -0.13000
C385        C  0.38443507  0.35789205  0.17528744    -0.11500
C386        C  0.36219723  0.33567482  0.18293267    -0.13000
C387        C  0.31017108  0.35844863  0.17258760    -0.11500
C388        C  0.32613455  0.37324814  0.14835009    -0.13000
C389        C  0.13363138  0.17985699  0.11180325    -0.11500
C390        C  0.15287664  0.19354666  0.13405153    -0.13000
C391        C  0.17494657  0.13374276  0.11798286    -0.11500
C392        C  0.19345019  0.15593409  0.13326332    -0.13000
C393        C  0.16373346  0.12981197  0.36663346    -0.11500
C394        C  0.18084936  0.14700447  0.34555900    -0.13000
C395        C  0.13013166  0.16137415  0.32817607    -0.11500
C396        C  0.10757066  0.13877335  0.33395956    -0.13000
O397        O  0.22820248  0.18021565  0.81966272    -0.73500
O398        O  0.19549996  0.15675890  0.77273546    -0.52400
C399        C  0.20382232  0.15963038  0.80701401     0.80200
O400        O  0.25446485  0.29797923  0.84216412    -0.58100
O401        O  0.29416829  0.32484807  0.80629952    -0.51100
C402        C  0.28020677  0.32014679  0.83677268     0.72200
O403        O  0.17470503  0.20433680  0.81821566    -0.72700
O404        O  0.16201837  0.17499136  0.76603020    -0.53200
C405        C  0.15794404  0.18029342  0.79979435     0.78200
O406        O  0.31070527  0.25942045  0.83009538    -0.57800
O407        O  0.32593828  0.30274341  0.80245658    -0.50900
C408        C  0.32661889  0.28711997  0.82863639     0.74800
Zr409      Zr  0.27123009  0.22055478  0.79229020     2.54700
O410        O  0.28342570  0.20177676  0.84678489    -0.78400
O411        O  0.29747979  0.19724261  0.76844971    -0.91800
Zr412      Zr  0.21790689  0.25314842  0.80492516     2.64700
O413        O  0.20500489  0.24531902  0.87081341    -0.96700
O414        O  0.18659592  0.27422035  0.80323915    -0.78800
O415        O  0.22744321  0.21769253  0.78622580    -0.82200
O416        O  0.26563520  0.26097886  0.80581015    -2.16900
O417        O  0.32293312  0.28367012  0.67058375    -0.65600
O418        O  0.33247087  0.31540814  0.71966604    -0.50100
C419        C  0.33817820  0.30888148  0.68746750     0.73200
O420        O  0.18983219  0.23050975  0.65348510    -0.58500
O421        O  0.17155081  0.18738697  0.68240019    -0.50400
C422        C  0.17273361  0.20314946  0.65524888     0.75000
O423        O  0.26251875  0.31500608  0.67406111    -0.69900
O424        O  0.29616760  0.33406581  0.72098454    -0.48500
C425        C  0.28764895  0.33354455  0.68731032     0.76400
O426        O  0.23805201  0.19803133  0.64180957    -0.65200
O427        O  0.20551744  0.16540543  0.68143337    -0.52400
C428        C  0.21478550  0.17379879  0.64847495     0.74800
Zr429      Zr  0.27737117  0.23542519  0.68337964     2.77500
O430        O  0.29193397  0.23569608  0.61857766    -0.95900
O431        O  0.30426847  0.20985998  0.68895206    -0.76800
Zr432      Zr  0.22389357  0.26847795  0.69615210     2.70100
O433        O  0.20982534  0.28653891  0.64257138    -0.78000
O434        O  0.19251715  0.28504199  0.72284206    -0.97100
Zr435      Zr  0.20579723  0.19598310  0.73153450     2.21500
Zr436      Zr  0.28967819  0.29311052  0.75585281     2.11100
O437        O  0.27147930  0.27543829  0.69415407    -2.45800
O438        O  0.23234611  0.23062821  0.69036538    -0.77800
O439        O  0.29801327  0.25363199  0.74434972    -0.70000
O440        O  0.19709469  0.23521827  0.74375233    -2.30900
O441        O  0.25283496  0.20068075  0.73114717    -2.27200
O442        O  0.24241341  0.28780920  0.75720071    -0.71800
H443        H  0.27284187  0.26794131  0.83078490     0.80200
H444        H  0.17667093  0.22915550  0.74258111     0.81300
H445        H  0.28183504  0.28668821  0.67307961     0.83600
H446        H  0.25194774  0.18236659  0.72622669     0.81200
H447        H  0.16684737  0.25764415  0.80666464     0.44200
H448        H  0.20028048  0.30485222  0.71348549     0.43200
H449        H  0.22033728  0.28430978  0.62106443     0.42800
H450        H  0.29193070  0.25252778  0.60749542     0.40800
H451        H  0.32404300  0.22504491  0.69663640     0.43900
H452        H  0.28834615  0.17819571  0.78045538     0.38700
H453        H  0.27549435  0.20736558  0.86840738     0.44800
H454        H  0.22266968  0.24798147  0.88368583     0.41200
H455        H  0.31264344  0.24122503  0.62008503     0.46200
H456        H  0.31692363  0.20828603  0.78036252     0.44900
H457        H  0.20336104  0.26227173  0.87896749     0.45000
H458        H  0.17377631  0.27343856  0.70940359     0.45400
O459        O  0.03588486  0.21272546  0.84017398    -0.73500
O460        O  0.02537485  0.18541250  0.78659973    -0.52400
C461        C  0.03115028  0.18944890  0.82159707     0.80200
O462        O  0.45238209  0.26458313  0.84261121    -0.58100
O463        O  0.48161232  0.30845642  0.81698426    -0.51100
C464        C  0.46385450  0.29225331  0.84163631     0.72200
O465        O  0.46007860  0.18853726  0.83759219    -0.72700
O466        O  0.47142393  0.16540391  0.79249397    -0.53200
C467        C  0.46487350  0.16844959  0.82617499     0.78200
O468        O  0.04648627  0.30369352  0.86164398    -0.57800
O469        O  0.03613410  0.33104246  0.82311626    -0.50900
C470        C  0.04288494  0.32557204  0.85511336     0.74800
Zr471      Zr  0.04234139  0.26150839  0.82335751     2.54700
O472        O  0.05285664  0.25922144  0.88919366    -0.78400
O473        O  0.09482781  0.28426128  0.81959971    -0.91800
Zr474      Zr  0.45605721  0.22650809  0.80700766     2.64700
O475        O  0.42271412  0.20574079  0.85904909    -0.96700
O476        O  0.40706196  0.19958603  0.78102460    -0.78800
O477        O  0.49807653  0.22504411  0.80429401    -0.82200
O478        O  0.50112209  0.26760173  0.82173463    -2.16900
O479        O  0.05986359  0.32317613  0.69146701    -0.65600
O480        O  0.03991785  0.34069716  0.73358617    -0.50100
C481        C  0.05157677  0.34118542  0.70197912     0.73200
O482        O  0.46988337  0.20212221  0.66035809    -0.58500
O483        O  0.47220933  0.17152173  0.70162259    -0.50400
C484        C  0.47006668  0.17866114  0.66844960     0.75000
O485        O  0.46712552  0.28692297  0.68463187    -0.69900
O486        O  0.48644555  0.31887791  0.73422931    -0.48500
C487        C  0.47538992  0.31187225  0.70132383     0.76400
O488        O  0.04838187  0.23796431  0.67102710    -0.65200
O489        O  0.02808495  0.19604046  0.70290846    -0.52400
C490        C  0.03999272  0.21095146  0.67396204     0.74800
Zr491      Zr  0.05344054  0.27674775  0.71399870     2.77500
O492        O  0.08598185  0.29250672  0.66062848    -0.95900
O493        O  0.10188840  0.29435108  0.73967912    -0.76800
Zr494      Zr  0.46706373  0.24036569  0.69867167     2.70100
O495        O  0.45875367  0.24497373  0.63270585    -0.78000
O496        O  0.41440157  0.21188567  0.69933237    -0.97100
Zr497      Zr  0.50090407  0.20395688  0.75067545     2.21500
Zr498      Zr  0.50945383  0.29954763  0.77148030     2.11100
O499        O  0.51187260  0.28178823  0.71054598    -2.45800
O500        O  0.50807687  0.23755116  0.70827871    -0.77800
O501        O  0.05233708  0.29583105  0.77478047    -0.70000
O502        O  0.45737440  0.20649958  0.74715561    -2.30900
O503        O  0.04787842  0.24455303  0.76297242    -2.27200
O504        O  0.46244349  0.25885852  0.75837751    -0.71800
H505        H  0.49929764  0.27401958  0.84640601     0.80200
H506        H  0.44057490  0.18773687  0.74187169     0.81300
H507        H  0.51254033  0.29269852  0.68921906     0.83600
H508        H  0.06288354  0.23932349  0.76275987     0.81200
H509        H  0.40000435  0.17933550  0.78812052     0.44200
H510        H  0.40808075  0.22632073  0.70289361     0.43200
H511        H  0.47835200  0.25490988  0.62176391     0.42800
H512        H  0.07484386  0.29480963  0.64009907     0.40800
H513        H  0.11108255  0.31566405  0.73936009     0.43900
H514        H  0.09962374  0.27127430  0.83341275     0.38700
H515        H  0.03374661  0.25043786  0.90143794     0.44800
H516        H  0.43402501  0.21637931  0.88171958     0.41200
H517        H  0.10139516  0.31245137  0.66722482     0.46200
H518        H  0.10221536  0.30178335  0.83593679     0.44900
H519        H  0.40826635  0.21209234  0.85592821     0.45000
H520        H  0.40878845  0.20473760  0.67312177     0.45400
O521        O  0.17283400  0.45655911  0.81606003    -0.73500
O522        O  0.15852531  0.47551783  0.76966260    -0.52400
C523        C  0.15505202  0.46345151  0.80117656     0.80200
O524        O  0.31789922  0.04188054  0.83624316    -0.58100
O525        O  0.33427863  0.02341850  0.79039624    -0.51100
C526        C  0.33594697  0.03435558  0.82347794     0.72200
O527        O  0.23365498  0.03831981  0.85302345    -0.72700
O528        O  0.19330141  0.02322303  0.81645319    -0.53200
C529        C  0.20746866  0.03291795  0.84745878     0.78200
O530        O  0.25058377  0.44674508  0.83483187    -0.57800
O531        O  0.29187878  0.46253913  0.80113994    -0.50900
C532        C  0.27688252  0.45208406  0.83053598     0.74800
Zr533      Zr  0.21624309  0.45435655  0.79631206     2.54700
O534        O  0.19272215  0.42538252  0.85079292    -0.78400
O535        O  0.19038814  0.40559248  0.76932828    -0.91800
Zr536      Zr  0.27282162  0.04027272  0.81402768     2.64700
O537        O  0.28409108  0.05749081  0.87905483    -0.96700
O538        O  0.29809951  0.09218087  0.80479483    -0.78800
O539        O  0.22190634  0.49944768  0.79407984    -0.82200
O540        O  0.26159591  0.49580159  0.81174753    -2.16900
O541        O  0.27597367  0.45954632  0.66749126    -0.65600
O542        O  0.30995638  0.47667592  0.71450452    -0.50100
C543        C  0.30113200  0.46619704  0.68115438     0.73200
O544        O  0.22226905  0.04835463  0.68454604    -0.58500
O545        O  0.19196891  0.03601503  0.73394328    -0.50400
C546        C  0.19861630  0.04390058  0.70031082     0.75000
O547        O  0.31060854  0.05705071  0.67001665    -0.69900
O548        O  0.33269485  0.03731711  0.70348722    -0.48500
C549        C  0.33048286  0.05028568  0.67509646     0.76400
O550        O  0.19436673  0.46438214  0.65115644    -0.65200
O551        O  0.17258164  0.48428189  0.68604957    -0.52400
C552        C  0.17504433  0.47191729  0.65618981     0.74800
Zr553      Zr  0.23329933  0.46362351  0.68773166     2.77500
O554        O  0.23237989  0.45508953  0.62024897    -0.95900
O555        O  0.20513395  0.41119511  0.69028875    -0.76800
Zr556      Zr  0.26781236  0.05071218  0.70519897     2.70100
O557        O  0.27340347  0.07414929  0.64554349    -0.78000
O558        O  0.29150501  0.10126878  0.72531727    -0.97100
Zr559      Zr  0.20359175  0.50593541  0.74056073     2.21500
Zr560      Zr  0.29224913  0.49808997  0.76133324     2.11100
O561        O  0.27827393  0.50558306  0.70103809    -2.45800
O562        O  0.23458856  0.50863879  0.69129664    -0.77800
O563        O  0.24734914  0.45506010  0.74761615    -0.70000
O564        O  0.24623645  0.04667444  0.76511740    -2.30900
O565        O  0.20043948  0.45967820  0.73602057    -2.27200
O566        O  0.29620234  0.04757512  0.75506040    -0.71800
H567        H  0.26782776  0.49446456  0.83654322     0.80200
H568        H  0.24304542  0.06271259  0.77063967     0.81300
H569        H  0.29082881  0.50730379  0.68083891     0.83600
H570        H  0.18093312  0.44452474  0.73036154     0.81200
H571        H  0.28674988  0.09908446  0.81918420     0.44200
H572        H  0.30815527  0.11111247  0.70827854     0.43200
H573        H  0.26327616  0.05797364  0.62710903     0.42800
H574        H  0.25088716  0.47113138  0.61113134     0.40800
H575        H  0.18605144  0.40614703  0.67934155     0.43900
H576        H  0.17023630  0.39762662  0.77807895     0.38700
H577        H  0.20150093  0.43882417  0.87256726     0.44800
H578        H  0.28544332  0.04215851  0.89244284     0.41200
H579        H  0.23420563  0.43761354  0.61706881     0.46200
H580        H  0.19795694  0.39486499  0.78324659     0.44900
H581        H  0.30419436  0.07399916  0.87885917     0.45000
H582        H  0.27794475  0.10785689  0.71758681     0.45400
C583        C  0.03557895  0.07252980  0.85395505     0.04900
C584        C  0.06550679  0.08676655  0.84338385    -0.11200
C585        C  0.07990696  0.11583473  0.83104330     0.02400
C586        C  0.06481725  0.13046298  0.82798574    -0.09800
C587        C  0.03702944  0.11919419  0.84111105     0.04900
C588        C  0.02187717  0.08998642  0.85319827    -0.09200
H589        H  0.07819451  0.07641052  0.84849423     0.10500
H590        H  0.07618188  0.15268481  0.81861784     0.08000
H591        H  0.00075882  0.08186878  0.86557500     0.07900
C592        C  0.05730468  0.12333688  0.57356784     0.04900
C593        C  0.04334430  0.13889900  0.58404981    -0.11200
C594        C  0.05976299  0.16720183  0.59881515     0.02400
C595        C  0.08970199  0.18025719  0.60104367    -0.09800
C596        C  0.10345891  0.16486905  0.59127902     0.04900
C597        C  0.08747277  0.13653308  0.57734142    -0.09200
H598        H  0.02016931  0.12911847  0.58128259     0.10500
H599        H  0.10218877  0.20167304  0.61394171     0.08000
H600        H  0.09827796  0.12456603  0.57041391     0.07900
C601        C  0.05380853  0.42565659  0.57338572     0.04900
C602        C  0.08477104  0.44338120  0.57564240    -0.11200
C603        C  0.10152756  0.43627542  0.59866638     0.02400
C604        C  0.08816236  0.41135613  0.61883184    -0.09800
C605        C  0.05826475  0.39467250  0.61985596     0.04900
C606        C  0.04055580  0.40134557  0.59702612    -0.09200
H607        H  0.09604043  0.46345768  0.56080158     0.10500
H608        H  0.10136514  0.40619862  0.63686566     0.08000
H609        H  0.01718694  0.38843762  0.59837047     0.07900
C610        C  0.43934365  0.05695090  0.60347515     0.04900
C611        C  0.45871076  0.08701055  0.60915320    -0.11200
C612        C  0.44775195  0.10604624  0.61520441     0.02400
C613        C  0.41816287  0.09504063  0.61738674    -0.09800
C614        C  0.39915104  0.06563700  0.61540591     0.04900
C615        C  0.40933363  0.04637010  0.60762081    -0.09200
H616        H  0.48171383  0.09528051  0.60781080     0.10500
H617        H  0.40983664  0.10955063  0.62365387     0.08000
H618        H  0.39411611  0.02340550  0.60475505     0.07900
C619        C  0.45020837  0.06496768  0.92413908     0.04900
C620        C  0.46499680  0.09410476  0.91359772    -0.11200
C621        C  0.45033815  0.10475658  0.89221971     0.02400
C622        C  0.42167027  0.08722349  0.88140100    -0.09800
C623        C  0.40709804  0.05815122  0.88851504     0.04900
C624        C  0.42103370  0.04673374  0.91044389    -0.09200
H625        H  0.48746169  0.10818586  0.92169380     0.10500
H626        H  0.41105198  0.09607265  0.86451219     0.08000
H627        H  0.40949002  0.02388902  0.91628930     0.07900
C628        C  0.12452969  0.06859406  0.93084105     0.04900
C629        C  0.13356274  0.09291378  0.90777475    -0.11200
C630        C  0.15815388  0.10188558  0.88479784     0.02400
C631        C  0.17356666  0.08731857  0.88489269    -0.09800
C632        C  0.16457609  0.06279109  0.90544175     0.04900
C633        C  0.14041343  0.05345234  0.92875775    -0.09200
H634        H  0.12132632  0.10410153  0.90689830     0.10500
H635        H  0.19205011  0.09418519  0.86651587     0.08000
H636        H  0.13346631  0.03375758  0.94393735     0.07900
C637        C  0.04528675  0.43913790  0.90029673     0.04900
C638        C  0.03693248  0.41010880  0.90953730    -0.11200
C639        C  0.05208283  0.39674770  0.89425885     0.02400
C640        C  0.07543666  0.41244561  0.87123389    -0.09800
C641        C  0.08420222  0.44073281  0.86265168     0.04900
C642        C  0.06930368  0.45429992  0.87681053    -0.09200
H643        H  0.01954410  0.39850092  0.92887816     0.10500
H644        H  0.08714091  0.40233496  0.85947631     0.08000
H645        H  0.07694071  0.47675165  0.87073676     0.07900
C646        C  0.10744231  0.05748271  0.59858243     0.04900
C647        C  0.11770757  0.04331237  0.62171520    -0.11200
C648        C  0.14605053  0.05852766  0.63640578     0.02400
C649        C  0.16401803  0.08734326  0.62874731    -0.09800
C650        C  0.15488079  0.10215930  0.60641672     0.04900
C651        C  0.12652489  0.08719792  0.59050953    -0.09200
H652        H  0.10400350  0.02061981  0.62760463     0.10500
H653        H  0.18570748  0.09869619  0.64105453     0.08000
H654        H  0.11957127  0.09821016  0.57183193     0.07900
O655        O  0.03042814  0.07245282  0.58112636    -0.84700
O656        O  0.01067076  0.02144971  0.88171653    -0.84900
O657        O  0.07971987  0.06665125  0.95387954    -0.86500
O658        O  0.99240924  0.06377694  0.95061909    -0.85300
O659        O  0.44611874  0.03031357  0.96631216    -0.84900
O660        O  0.09135257  0.03254417  0.97005778    -0.86300
O661        O  0.03585824  0.06456065  0.91525571    -0.84700
O662        O  0.04028402  0.09151870  0.52181667    -0.84300
Zr663      Zr  0.02843398  0.04991114  0.97627588     2.84300
O664        O  0.48381008  0.01298113  0.95299916    -1.06300
O665        O  0.03598435  0.03517886  0.52494777    -1.07000
C666        C  0.04121052  0.09372219  0.55795798     1.08400
C667        C  0.02629094  0.05038912  0.88466715     1.08300
C668        C  0.09705623  0.05585942  0.95354185     1.11300
C669        C  0.46421076  0.05275670  0.94879700     1.09100
H670        H  0.04688642  0.01767766  0.93006788     0.34700
O671        O  0.03384398  0.01204728  0.95093243    -1.27200
H672        H  0.48644573  0.05282278  0.53268360     0.34300
O673        O  0.98820572  0.03630123  0.52533069    -1.28900
O674        O  0.45433155  0.42445347  0.92140195    -0.84700
O675        O  0.48839289  0.47178496  0.62254153    -0.86200
O676        O  0.04557001  0.46691413  0.95225348    -0.84800
O677        O  0.40705649  0.47288085  0.95378586    -0.84800
O678        O  0.43652930  0.02561987  0.55447680    -0.84500
O679        O  0.07835134  0.02840410  0.54769681    -0.84300
O680        O  0.00925586  0.42547272  0.55083361    -0.84700
O681        O  0.42524197  0.42944254  0.55643610    -0.84200
O682        O  0.05422692  0.45845404  0.53066049    -0.85200
O683        O  0.41208120  0.46236126  0.53936563    -0.84400
O684        O  0.01259926  0.45849045  0.90504958    -0.84800
O685        O  0.05543779  0.03784014  0.59595042    -0.84500
O686        O  0.47142886  0.03703090  0.60004553    -0.84200
O687        O  0.42786480  0.45913492  0.90729581    -0.84600
O688        O  0.44689836  0.40546766  0.98066880    -0.84900
O689        O  0.46801279  0.42829341  0.58938743    -0.86200
Zr690      Zr  0.48025744  0.47763559  0.92633939     2.83100
Zr691      Zr  0.00374843  0.01899583  0.57656313     2.83500
Zr692      Zr  0.04194368  0.99777780  0.50050072     2.84100
Zr693      Zr  0.44374763  0.99937060  0.50255453     2.83400
Zr694      Zr  0.47421863  0.44180817  0.52770859     2.84200
O695        O  0.46777092  0.47942131  0.55119179    -1.06800
O696        O  0.99758428  0.46138331  0.97668347    -1.06300
C697        C  0.44499105  0.40326737  0.94453032     1.08400
C698        C  0.47433683  0.44287154  0.61991126     1.11000
C699        C  0.03331355  0.45565029  0.92036171     1.08600
C700        C  0.40559195  0.45918001  0.92283166     1.08900
C701        C  0.44946920  0.03806706  0.58571598     1.08500
C702        C  0.07844151  0.04023035  0.57967819     1.08000
C703        C  0.03741568  0.43622722  0.54960719     1.08500
C704        C  0.40823624  0.44071685  0.55839073     1.08000
H705        H  0.02614434  0.47445884  0.57235166     0.34700
O706        O  0.01829680  0.47978155  0.55166430    -1.27900
H707        H  0.43054811  0.44490384  0.97259669     0.34700
O708        O  0.44916532  0.46123706  0.97911005    -1.29300
C709        C  0.38339674  0.43057900  0.58562538     0.04900
C710        C  0.37364965  0.45022996  0.59774397    -0.11200
C711        C  0.35072166  0.44161583  0.62353671     0.03700
C712        C  0.33778089  0.41412981  0.63685617    -0.09800
C713        C  0.34603528  0.39452856  0.62515546     0.04900
C714        C  0.36901705  0.40230895  0.59987420    -0.09200
H715        H  0.38393884  0.47206082  0.58755771     0.10500
H716        H  0.32014829  0.40754253  0.65667310     0.08000
H717        H  0.37529544  0.38667927  0.59120534     0.07900
C718        C  0.37527882  0.44125824  0.90653979     0.04900
C719        C  0.35776529  0.45417493  0.90252131    -0.11200
C720        C  0.32778143  0.43693372  0.89524796     0.02400
C721        C  0.31484555  0.40718808  0.89356518    -0.09800
C722        C  0.33117709  0.39366241  0.89439175     0.04900
C723        C  0.36171406  0.41060973  0.90085542    -0.09200
H724        H  0.36746251  0.47745872  0.90472946     0.10500
H725        H  0.29172015  0.39437901  0.88750580     0.08000
H726        H  0.37458126  0.40020782  0.90219669     0.07900
C727        C  0.46250254  0.42133282  0.65121675     0.04900
C728        C  0.47749904  0.40594021  0.65942815    -0.11200
C729        C  0.46234509  0.37698577  0.67213889     0.02400
C730        C  0.43292593  0.36374009  0.67804777    -0.09800
C731        C  0.41693080  0.37622684  0.66718291     0.04900
C732        C  0.43149589  0.40529927  0.65482353    -0.09200
H733        H  0.50010556  0.41526162  0.65211715     0.10500
H734        H  0.42160797  0.34157339  0.68758784     0.08000
H735        H  0.41872169  0.41427119  0.64414152     0.07900
C736        C  0.43142766  0.37377124  0.92868024     0.04900
C737        C  0.40192398  0.35882026  0.91831453    -0.11200
C738        C  0.38946978  0.33046807  0.90383242     0.02400
C739        C  0.40578782  0.31692560  0.90088844    -0.09800
C740        C  0.43518357  0.33205176  0.90885546     0.04900
C741        C  0.44818340  0.36037487  0.92338298    -0.09200
H742        H  0.38910993  0.36929785  0.92058803     0.10500
H743        H  0.39622556  0.29544694  0.88796663     0.08000
H744        H  0.47115860  0.37219734  0.92925749     0.07900
C745        C  0.32159599  0.46324132  0.65677917    -0.11500
C746        C  0.33809727  0.45852025  0.63816381    -0.13000
C747        C  0.37041083  0.05677373  0.62768651    -0.11500
C748        C  0.35077502  0.05505595  0.64618211    -0.13000
C749        C  0.35880451  0.03711286  0.84875672    -0.11500
C750        C  0.37905457  0.04195162  0.86947023    -0.13000
C751        C  0.29233854  0.44908842  0.86134238    -0.11500
C752        C  0.30980912  0.44776158  0.88145048    -0.13000
C753        C  0.17677491  0.04480898  0.67823657    -0.11500
C754        C  0.15884733  0.04636435  0.65959192    -0.13000
C755        C  0.15369710  0.46509799  0.62688312    -0.11500
C756        C  0.13175323  0.45543797  0.60803405    -0.13000
C757        C  0.13031505  0.45912606  0.82195736    -0.11500
C758        C  0.10942076  0.45460372  0.83990415    -0.13000
C759        C  0.17877497  0.04636826  0.89645545    -0.11500
C760        C  0.19269500  0.03861502  0.87758586    -0.13000
C761        C  0.05022728  0.35947817  0.67384441    -0.11500
C762        C  0.04848224  0.37316105  0.64831952    -0.13000
C763        C  0.47408524  0.33521294  0.68270048    -0.11500
C764        C  0.47360343  0.35718368  0.67523486    -0.13000
C765        C  0.45133571  0.31982038  0.89309685    -0.11500
C766        C  0.45776624  0.30663471  0.87127298    -0.13000
C767        C  0.04431749  0.34520428  0.88490726    -0.11500
C768        C  0.04449076  0.36667090  0.89749038    -0.13000
C769        C  0.46889385  0.15875710  0.63964391    -0.11500
C770        C  0.46470012  0.13654651  0.62424775    -0.13000
C771        C  0.04722763  0.18166957  0.61899889    -0.11500
C772        C  0.04324322  0.19580811  0.64244504    -0.13000
C773        C  0.02971081  0.16444510  0.83977593    -0.11500
C774        C  0.02811745  0.14103888  0.84464870    -0.13000
C775        C  0.46372058  0.13231346  0.87558848    -0.11500
C776        C  0.46522722  0.14972401  0.85369427    -0.13000
C777        C  0.29663756  0.34137907  0.86631464    -0.11500
C778        C  0.31486719  0.36321396  0.88287218    -0.13000
C779        C  0.34514998  0.30233406  0.85973015    -0.11500
C780        C  0.36267726  0.31654779  0.88359471    -0.13000
C781        C  0.38582342  0.35559558  0.66529858    -0.11500
C782        C  0.36322957  0.33296932  0.67026476    -0.13000
C783        C  0.30935225  0.35095652  0.66110590    -0.11500
C784        C  0.32854481  0.36685762  0.64085958    -0.13000
C785        C  0.13251533  0.17665012  0.60428517    -0.11500
C786        C  0.15301990  0.18898746  0.62493498    -0.13000
C787        C  0.17557997  0.13297693  0.60494571    -0.11500
C788        C  0.19604823  0.15479030  0.61845810    -0.13000
C789        C  0.16841549  0.12446874  0.85792271    -0.11500
C790        C  0.18365128  0.14023748  0.83375814    -0.13000
C791        C  0.13335199  0.15618920  0.81743802    -0.11500
C792        C  0.11089492  0.13445914  0.82552501    -0.13000
O793        O  0.22820841  0.68021535  0.31965833    -0.73500
O794        O  0.19550517  0.65675516  0.27273312    -0.52400
C795        C  0.20382833  0.65962864  0.30701163     0.80200
O796        O  0.25446258  0.79797376  0.34215737    -0.58100
O797        O  0.29416392  0.82484628  0.30629098    -0.51100
C798        C  0.28020328  0.82014289  0.33676531     0.72200
O799        O  0.17470563  0.70432980  0.31820712    -0.72700
O800        O  0.16202179  0.67498115  0.26602465    -0.53200
C801        C  0.15794658  0.68028479  0.29978759     0.78200
O802        O  0.31070416  0.75942211  0.33008938    -0.57800
O803        O  0.32594041  0.80274294  0.30244282    -0.50900
C804        C  0.32661781  0.78712123  0.32862773     0.74800
Zr805      Zr  0.27123381  0.72055542  0.29228254     2.54700
O806        O  0.28343424  0.70178297  0.34677873    -0.78400
O807        O  0.29748932  0.69724685  0.26845064    -0.91800
Zr808      Zr  0.21790563  0.75314330  0.30491746     2.64700
O809        O  0.20500187  0.74531868  0.37080543    -0.96700
O810        O  0.18659792  0.77421870  0.30322485    -0.78800
O811        O  0.22744510  0.71768904  0.28621967    -0.82200
O812        O  0.26563514  0.76097754  0.30579968    -2.16900
O813        O  0.32292904  0.78367352  0.17056923    -0.65600
O814        O  0.33246552  0.81541259  0.21965012    -0.50100
C815        C  0.33817223  0.80888608  0.18745112     0.73200
O816        O  0.18983043  0.73050076  0.15348008    -0.58500
O817        O  0.17154987  0.68737933  0.18239830    -0.50400
C818        C  0.17273223  0.70314075  0.15524579     0.75000
O819        O  0.26250624  0.81499831  0.17404899    -0.69900
O820        O  0.29616308  0.83406161  0.22096373    -0.48500
C821        C  0.28763803  0.83353838  0.18729193     0.76400
O822        O  0.23805257  0.69803484  0.14180172    -0.65200
O823        O  0.20552974  0.66540327  0.18142948    -0.52400
C824        C  0.21479029  0.67379950  0.14846944     0.74800
Zr825      Zr  0.27737259  0.73542517  0.18337277     2.77500
O826        O  0.29194270  0.73568100  0.11857759    -0.95900
O827        O  0.30426759  0.70985921  0.18896529    -0.76800
Zr828      Zr  0.22388781  0.76847004  0.19614699     2.70100
O829        O  0.20981036  0.78652884  0.14257274    -0.78000
O830        O  0.19250561  0.78502488  0.22284270    -0.97100
Zr831      Zr  0.20579986  0.69597734  0.23152896     2.21500
Zr832      Zr  0.28967651  0.79311048  0.25584277     2.11100
O833        O  0.27147571  0.77543560  0.19414493    -2.45800
O834        O  0.23234538  0.73062345  0.19035935    -0.77800
O835        O  0.29801520  0.75363396  0.24434162    -0.70000
O836        O  0.19709270  0.73520933  0.24374676    -2.30900
O837        O  0.25283946  0.70067945  0.23114034    -2.27200
O838        O  0.24240992  0.78780484  0.25719327    -0.71800
H839        H  0.27284137  0.76794024  0.33077517     0.80200
H840        H  0.17666742  0.72914391  0.24257603     0.81300
H841        H  0.28182683  0.78668285  0.17307181     0.83600
H842        H  0.25195453  0.68236736  0.22622101     0.81200
H843        H  0.16683275  0.75762063  0.30645349     0.44200
H844        H  0.20026424  0.80483433  0.21348765     0.43200
H845        H  0.22031171  0.78429067  0.12105974     0.42800
H846        H  0.29194330  0.75251176  0.10748517     0.40800
H847        H  0.32406542  0.72506034  0.19653415     0.43900
H848        H  0.28834524  0.67819390  0.28044036     0.38700
H849        H  0.27549044  0.70735980  0.36839919     0.44800
H850        H  0.22264395  0.74791294  0.38366600     0.41200
H851        H  0.31265107  0.74120776  0.12009231     0.46200
H852        H  0.31692696  0.70828159  0.28038312     0.44900
H853        H  0.20342639  0.76230635  0.37898133     0.45000
H854        H  0.17376406  0.77341829  0.20940540     0.45400
O855        O  0.03589232  0.71272554  0.34016904    -0.73500
O856        O  0.02537233  0.68540588  0.28659908    -0.52400
C857        C  0.03115434  0.68944649  0.32159464     0.80200
O858        O  0.45237671  0.76458581  0.34260801    -0.58100
O859        O  0.48160881  0.80845986  0.31698346    -0.51100
C860        C  0.46384824  0.79225606  0.34163270     0.72200
O861        O  0.46007195  0.68853135  0.33758067    -0.72700
O862        O  0.47141237  0.66539952  0.29247493    -0.53200
C863        C  0.46486304  0.66844245  0.32615724     0.78200
O864        O  0.04649086  0.80369574  0.36163606    -0.57800
O865        O  0.03612691  0.83103978  0.32311483    -0.50900
C866        C  0.04288485  0.82557205  0.35510894     0.74800
Zr867      Zr  0.04234500  0.76150813  0.32335209     2.54700
O868        O  0.05286736  0.75922917  0.38918750    -0.78400
O869        O  0.09483152  0.78426228  0.31959277    -0.91800
Zr870      Zr  0.45605578  0.72651022  0.30700970     2.64700
O871        O  0.42272744  0.70574235  0.35906526    -0.96700
O872        O  0.40706080  0.69959581  0.28102577    -0.78800
O873        O  0.49807457  0.72504586  0.30429455    -0.82200
O874        O  0.50111900  0.76760485  0.32173934    -2.16900
O875        O  0.05986365  0.82317185  0.19145816    -0.65600
O876        O  0.03992573  0.84069599  0.23358460    -0.50100
C877        C  0.05157899  0.84118215  0.20197370     0.73200
O878        O  0.46987968  0.70212313  0.16035864    -0.58500
O879        O  0.47221581  0.67152494  0.20161815    -0.50400
C880        C  0.47006538  0.67866271  0.16844716     0.75000
O881        O  0.46712419  0.78692468  0.18463337    -0.69900
O882        O  0.48644331  0.81888022  0.23423023    -0.48500
C883        C  0.47538638  0.81187330  0.20132524     0.76400
O884        O  0.04838226  0.73795886  0.17102726    -0.65200
O885        O  0.02808491  0.69603656  0.20291241    -0.52400
C886        C  0.03999264  0.71094624  0.17396520     0.74800
Zr887      Zr  0.05344070  0.77674440  0.21399305     2.77500
O888        O  0.08597164  0.79248933  0.16061198    -0.95900
O889        O  0.10188893  0.79435684  0.23967712    -0.76800
Zr890      Zr  0.46706381  0.74036881  0.19867244     2.70100
O891        O  0.45875494  0.74498258  0.13270785    -0.78000
O892        O  0.41440032  0.71189525  0.19930755    -0.97100
Zr893      Zr  0.50090361  0.70396017  0.25067452     2.21500
Zr894      Zr  0.50945234  0.79955073  0.27148341     2.11100
O895        O  0.51187259  0.78178968  0.21055215    -2.45800
O896        O  0.50807736  0.73755377  0.20827613    -0.77800
O897        O  0.05233929  0.79582956  0.27477400    -0.70000
O898        O  0.45737296  0.70650242  0.24715646    -2.30900
O899        O  0.04788024  0.74455051  0.26296772    -2.27200
O900        O  0.46244281  0.75886036  0.25837928    -0.71800
H901        H  0.49929247  0.77402188  0.34640859     0.80200
H902        H  0.44057452  0.68774142  0.24187239     0.81300
H903        H  0.51254073  0.79270358  0.18921863     0.83600
H904        H  0.06288438  0.73932101  0.26275476     0.81200
H905        H  0.39999827  0.67934553  0.28812672     0.44200
H906        H  0.40808932  0.72630973  0.20320382     0.43200
H907        H  0.47835171  0.75490131  0.12176046     0.42800
H908        H  0.07484513  0.79482754  0.14009833     0.40800
H909        H  0.11107276  0.81566948  0.23937947     0.43900
H910        H  0.09963026  0.77128610  0.33342645     0.38700
H911        H  0.03377179  0.75054756  0.40145862     0.44800
H912        H  0.43404076  0.71639173  0.38173026     0.41200
H913        H  0.10140822  0.81242020  0.16722297     0.46200
H914        H  0.10221867  0.80179470  0.33591056     0.44900
H915        H  0.40827050  0.71208129  0.35594451     0.45000
H916        H  0.40877797  0.70496566  0.17302555     0.45400
O917        O  0.17283206  0.95655735  0.31605771    -0.73500
O918        O  0.15852343  0.97551571  0.26965985    -0.52400
C919        C  0.15505051  0.96345039  0.30117449     0.80200
O920        O  0.31789751  0.54188068  0.33623993    -0.58100
O921        O  0.33427771  0.52341927  0.29039362    -0.51100
C922        C  0.33594522  0.53435582  0.32347547     0.72200
O923        O  0.23365609  0.53831878  0.35302346    -0.72700
O924        O  0.19330190  0.52322254  0.31645492    -0.53200
C925        C  0.20747012  0.53291764  0.34745999     0.78200
O926        O  0.25058055  0.94674335  0.33483524    -0.57800
O927        O  0.29186785  0.96252408  0.30113164    -0.50900
C928        C  0.27687714  0.95207789  0.33053392     0.74800
Zr929      Zr  0.21624020  0.95435187  0.29631267     2.54700
O930        O  0.19271357  0.92537822  0.35079192    -0.78400
O931        O  0.19038595  0.90558331  0.26934304    -0.91800
Zr932      Zr  0.27282051  0.54027197  0.31402498     2.64700
O933        O  0.28408782  0.55748188  0.37905546    -0.96700
O934        O  0.29809630  0.59218182  0.30480597    -0.78800
O935        O  0.22190256  0.99944230  0.29407965    -0.82200
O936        O  0.26159355  0.99579694  0.31174853    -2.16900
O937        O  0.27597568  0.95954209  0.16749378    -0.65600
O938        O  0.30995982  0.97667631  0.21450552    -0.50100
C939        C  0.30113525  0.96619563  0.18115614     0.73200
O940        O  0.22226557  0.54835210  0.18454357    -0.58500
O941        O  0.19196889  0.53601478  0.23394445    -0.50400
C942        C  0.19861426  0.54389961  0.20031136     0.75000
O943        O  0.31060385  0.55704443  0.17001104    -0.69900
O944        O  0.33269232  0.53731428  0.20348381    -0.48500
C945        C  0.33047867  0.55028015  0.17509127     0.76400
O946        O  0.19436329  0.96437103  0.15115805    -0.65200
O947        O  0.17258126  0.98427611  0.18604707    -0.52400
C948        C  0.17504181  0.97190780  0.15618959     0.74800
Zr949      Zr  0.23329994  0.96361887  0.18773284     2.77500
O950        O  0.23238035  0.95508317  0.12025068    -0.95900
O951        O  0.20513503  0.91119103  0.19030332    -0.76800
Zr952      Zr  0.26780881  0.55070820  0.20519468     2.70100
O953        O  0.27339696  0.57414129  0.14553670    -0.78000
O954        O  0.29150294  0.60126515  0.22531136    -0.97100
Zr955      Zr  0.20359071  0.00593097  0.24055886     2.21500
Zr956      Zr  0.29224842  0.99808554  0.26133557     2.11100
O957        O  0.27827467  0.00557878  0.20103945    -2.45800
O958        O  0.23458928  0.00863457  0.19129662    -0.77800
O959        O  0.24734795  0.95505591  0.24761827    -0.70000
O960        O  0.24623466  0.54667280  0.26511437    -2.30900
O961        O  0.20043934  0.95967429  0.23602005    -2.27200
O962        O  0.29620032  0.54757422  0.25505672    -0.71800
H963        H  0.26782678  0.99446185  0.33654511     0.80200
H964        H  0.24304412  0.56271042  0.27063582     0.81300
H965        H  0.29082993  0.00729994  0.18084041     0.83600
H966        H  0.18093176  0.94451972  0.23036015     0.81200
H967        H  0.28673142  0.59907873  0.31917284     0.44200
H968        H  0.30814323  0.61111080  0.20825899     0.43200
H969        H  0.26330428  0.55796374  0.12709599     0.42800
H970        H  0.25088697  0.97112501  0.11113258     0.40800
H971        H  0.18604601  0.90614242  0.17937796     0.43900
H972        H  0.17022146  0.89763866  0.27803455     0.38700
H973        H  0.20151433  0.93881121  0.37256970     0.44800
H974        H  0.28543181  0.54214402  0.39244136     0.41200
H975        H  0.23420706  0.93760739  0.11707177     0.46200
H976        H  0.19791389  0.89484431  0.28331613     0.44900
H977        H  0.30419358  0.57398558  0.37886510     0.45000
H978        H  0.27793497  0.60784906  0.21759948     0.45400
C979        C  0.03558306  0.57252616  0.35395388     0.04900
C980        C  0.06551018  0.58676053  0.34338084    -0.11200
C981        C  0.07991181  0.61582891  0.33104180     0.02400
C982        C  0.06482445  0.63045986  0.32798770    -0.09800
C983        C  0.03703677  0.61919262  0.34111269     0.04900
C984        C  0.02188308  0.58998460  0.35319889    -0.09200
H985        H  0.07819645  0.57640259  0.34848892     0.10500
H986        H  0.07619049  0.65268196  0.31862098     0.08000
H987        H  0.00076506  0.58186804  0.36557631     0.07900
C988        C  0.05730471  0.62333466  0.07356147     0.04900
C989        C  0.04334391  0.63889434  0.08405226    -0.11200
C990        C  0.05976261  0.66719538  0.09882235     0.02400
C991        C  0.08970150  0.68025052  0.10105136    -0.09800
C992        C  0.10345873  0.66486467  0.09127658     0.04900
C993        C  0.08747306  0.63653145  0.07733009    -0.09200
H994        H  0.02016871  0.62911341  0.08128744     0.10500
H995        H  0.10218808  0.70166433  0.11395515     0.08000
H996        H  0.09827864  0.62456632  0.07039355     0.07900
C997        C  0.05380527  0.92565505  0.07338608     0.04900
C998        C  0.08476806  0.94337797  0.07564256    -0.11200
C999        C  0.10152381  0.93626889  0.09866374     0.02400
C1000       C  0.08815723  0.91134819  0.11882608    -0.09800
C1001       C  0.05825953  0.89466771  0.11985330     0.04900
C1002       C  0.04055140  0.90134389  0.09702642    -0.09200
H1003       H  0.09603815  0.96345512  0.06080333     0.10500
H1004       H  0.10135941  0.90618774  0.13685676     0.08000
H1005       H  0.01718246  0.88843790  0.09837237     0.07900
C1006       C  0.43934232  0.55695212  0.10347558     0.04900
C1007       C  0.45870604  0.58701313  0.10914758    -0.11200
C1008       C  0.44774328  0.60604645  0.11519087     0.02400
C1009       C  0.41815330  0.59503749  0.11736724    -0.09800
C1010       C  0.39914499  0.56563269  0.11539556     0.04900
C1011       C  0.40933182  0.54636795  0.10762094    -0.09200
H1012       H  0.48170964  0.59528579  0.10780759     0.10500
H1013       H  0.40982390  0.60954580  0.12362731     0.08000
H1014       H  0.39411698  0.52340226  0.10476189     0.07900
C1015       C  0.45020370  0.56496787  0.42413835     0.04900
C1016       C  0.46499256  0.59410315  0.41358818    -0.11200
C1017       C  0.45033131  0.60475381  0.39221266     0.02400
C1018       C  0.42166060  0.58722204  0.38140656    -0.09800
C1019       C  0.40708955  0.55815033  0.38852265     0.04900
C1020       C  0.42102722  0.54673377  0.41044924    -0.09200
H1021       H  0.48745951  0.60818357  0.42167546     0.10500
H1022       H  0.41104007  0.59607044  0.36452056     0.08000
H1023       H  0.40948377  0.52388944  0.41629690     0.07900
C1024       C  0.12453438  0.56859444  0.43084232     0.04900
C1025       C  0.13356733  0.59291403  0.40777539    -0.11200
C1026       C  0.15816181  0.60188912  0.38480346     0.02400
C1027       C  0.17357784  0.58732547  0.38490434    -0.09800
C1028       C  0.16458532  0.56279615  0.40545017     0.04900
C1029       C  0.14041984  0.55345451  0.42876148    -0.09200
H1030       H  0.12132844  0.60409911  0.40689466     0.10500
H1031       H  0.19206379  0.59419431  0.36653148     0.08000
H1032       H  0.13347188  0.53375872  0.44393901     0.07900
C1033       C  0.04529201  0.93913875  0.40030740     0.04900
C1034       C  0.03693950  0.91010985  0.40954756    -0.11200
C1035       C  0.05209158  0.89675028  0.39426936     0.02400
C1036       C  0.07544692  0.91245042  0.37124769    -0.09800
C1037       C  0.08420957  0.94073675  0.36266396     0.04900
C1038       C  0.06930892  0.95430195  0.37682167    -0.09200
H1039       H  0.01955077  0.89850074  0.42888724     0.10500
H1040       H  0.08715249  0.90234114  0.35949022     0.08000
H1041       H  0.07694375  0.97675300  0.37074631     0.07900
C1042       C  0.10743894  0.55748408  0.09858744     0.04900
C1043       C  0.11770250  0.54331496  0.12172543    -0.11200
C1044       C  0.14604335  0.55853192  0.13642299     0.02400
C1045       C  0.16400946  0.58734849  0.12876846    -0.09800
C1046       C  0.15487499  0.60216238  0.10642909     0.04900
C1047       C  0.12652155  0.58719933  0.09051488    -0.09200
H1048       H  0.10399930  0.52062175  0.12761212     0.10500
H1049       H  0.18569735  0.59870256  0.14108024     0.08000
H1050       H  0.11957018  0.59821006  0.07183147     0.07900
O1051       O  0.03042618  0.57245141  0.08111940    -0.84700
O1052       O  0.01067562  0.52144689  0.38171560    -0.84900
O1053       O  0.07972381  0.56665052  0.45388062    -0.86500
O1054       O  0.99241220  0.56377496  0.45061619    -0.85300
O1055       O  0.44611577  0.53031574  0.46631464    -0.84900
O1056       O  0.09135501  0.53254160  0.47005484    -0.86300
O1057       O  0.03586134  0.56455821  0.41525449    -0.84700
O1058       O  0.04028553  0.59151748  0.02181012    -0.84300
Zr1059     Zr  0.02843712  0.54991052  0.47627495     2.84300
O1060       O  0.48380620  0.51298275  0.45300046    -1.06300
O1061       O  0.03598531  0.53517767  0.02494465    -1.07000
C1062       C  0.04121030  0.59372071  0.05795115     1.08400
C1063       C  0.02629501  0.55038617  0.38466613     1.08300
C1064       C  0.09705969  0.55585807  0.45354120     1.11300
C1065       C  0.46420726  0.55275794  0.44879718     1.09100
H1066       H  0.04689056  0.51767727  0.43006615     0.34700
O1067       O  0.03384695  0.51204659  0.45093200    -1.27200
H1068       H  0.48644640  0.55282703  0.03268967     0.34300
O1069       O  0.98820480  0.53629907  0.02532652    -1.28900
O1070       O  0.45432102  0.92445172  0.42140098    -0.84700
O1071       O  0.48839135  0.97178625  0.12253920    -0.86200
O1072       O  0.04557201  0.96691374  0.45226336    -0.84800
O1073       O  0.40705297  0.97287451  0.45378621    -0.84800
O1074       O  0.43653104  0.52562250  0.05447886    -0.84500
O1075       O  0.07834994  0.52840453  0.04769870    -0.84300
O1076       O  0.00925348  0.92547305  0.05083447    -0.84700
O1077       O  0.42524480  0.92944097  0.05643502    -0.84200
O1078       O  0.05422457  0.95845296  0.03065944    -0.85200
O1079       O  0.41208488  0.96236031  0.03936476    -0.84400
O1080       O  0.01260331  0.95849110  0.40505743    -0.84800
O1081       O  0.05543525  0.53784049  0.09595093    -0.84500
O1082       O  0.47142887  0.53703258  0.10004966    -0.84200
O1083       O  0.42786232  0.95913203  0.40729375    -0.84600
O1084       O  0.44689156  0.90546672  0.48066813    -0.84900
O1085       O  0.46801678  0.92829448  0.08938586    -0.86200
Zr1086     Zr  0.48025573  0.97763427  0.42633672     2.83100
Zr1087     Zr  0.00374803  0.51899459  0.07655835     2.83500
Zr1088     Zr  0.04194463  0.49777673  0.00049725     2.84100
Zr1089     Zr  0.44374860  0.49937287  0.00255735     2.83400
Zr1090     Zr  0.47422266  0.94180900  0.02770874     2.84200
O1091       O  0.46777442  0.97942205  0.05119123    -1.06800
O1092       O  0.99758426  0.96138365  0.47668759    -1.06300
C1093       C  0.44497980  0.90326586  0.44452992     1.08400
C1094       C  0.47433682  0.94287280  0.11990893     1.11000
C1095       C  0.03331684  0.95565015  0.42037119     1.08600
C1096       C  0.40558871  0.95917485  0.42283089     1.08900
C1097       C  0.44946990  0.53806930  0.08571849     1.08500
C1098       C  0.07843930  0.54023098  0.07968013     1.08000
C1099       C  0.03741318  0.93622672  0.04960736     1.08500
C1100       C  0.40823913  0.94071537  0.05838929     1.08000
H1101       H  0.02614258  0.97445788  0.07235220     0.34700
O1102       O  0.01829442  0.97978086  0.05166389    -1.27900
H1103       H  0.43055044  0.94490452  0.47259715     0.34700
O1104       O  0.44916387  0.96123430  0.47910807    -1.29300
C1105       C  0.38339801  0.93057691  0.08562179     0.04900
C1106       C  0.37365581  0.95023057  0.09774648    -0.11200
C1107       C  0.35072314  0.94161492  0.12353234     0.03700
C1108       C  0.33777310  0.91412478  0.13683893    -0.09800
C1109       C  0.34602365  0.89452155  0.12513392     0.04900
C1110       C  0.36900989  0.90230320  0.09985929    -0.09200
H1111       H  0.38395190  0.97206432  0.08756936     0.10500
H1112       H  0.32013715  0.90753645  0.15665076     0.08000
H1113       H  0.37528512  0.88667190  0.09118659     0.07900
C1114       C  0.37527564  0.94125348  0.40653760     0.04900
C1115       C  0.35776316  0.95417113  0.40251767    -0.11200
C1116       C  0.32777998  0.93693114  0.39523914     0.02400
C1117       C  0.31484336  0.90718550  0.39355113    -0.09800
C1118       C  0.33117361  0.89365866  0.39438262     0.04900
C1119       C  0.36171013  0.91060498  0.40085143    -0.09200
H1120       H  0.36746074  0.97745484  0.40472874     0.10500
H1121       H  0.29171856  0.89437748  0.38748715     0.08000
H1122       H  0.37457654  0.90020249  0.40219436     0.07900
C1123       C  0.46249859  0.92133363  0.15121300     0.04900
C1124       C  0.47749091  0.90593675  0.15942343    -0.11200
C1125       C  0.46233367  0.87698270  0.17213456     0.02400
C1126       C  0.43291467  0.86374086  0.17804309    -0.09800
C1127       C  0.41692301  0.87623091  0.16717547     0.04900
C1128       C  0.43149176  0.90530358  0.15481723    -0.09200
H1129       H  0.50009705  0.91525497  0.15211208     0.10500
H1130       H  0.42159407  0.84157437  0.18758366     0.08000
H1131       H  0.41872031  0.91427802  0.14413338     0.07900
C1132       C  0.43141363  0.87376933  0.42868101     0.04900
C1133       C  0.40190810  0.85881642  0.41832417    -0.11200
C1134       C  0.38945356  0.83046432  0.40384143     0.02400
C1135       C  0.40577215  0.81692250  0.40089348    -0.09800
C1136       C  0.43516923  0.83205073  0.40885151     0.04900
C1137       C  0.44816998  0.86037467  0.42337567    -0.09200
H1138       H  0.38909319  0.86929267  0.42060322     0.10500
H1139       H  0.39620932  0.79544358  0.38797235     0.08000
H1140       H  0.47114650  0.87219919  0.42924161     0.07900
C1141       C  0.32160066  0.96324156  0.15678106    -0.11500
C1142       C  0.33810245  0.95852142  0.13816498    -0.13000
C1143       C  0.37040493  0.55676691  0.12767889    -0.11500
C1144       C  0.35076951  0.55504846  0.14617588    -0.13000
C1145       C  0.35880049  0.53711162  0.34875674    -0.11500
C1146       C  0.37904757  0.54194968  0.36947532    -0.13000
C1147       C  0.29233683  0.94908725  0.36133945    -0.11500
C1148       C  0.30980874  0.94776117  0.38144541    -0.13000
C1149       C  0.17677200  0.54481018  0.17824128    -0.11500
C1150       C  0.15884230  0.54636739  0.15960346    -0.13000
C1151       C  0.15369354  0.96508713  0.12688319    -0.11500
C1152       C  0.13174992  0.95542903  0.10803336    -0.13000
C1153       C  0.13031560  0.95912790  0.32195759    -0.11500
C1154       C  0.10942443  0.95460727  0.33991016    -0.13000
C1155       C  0.17878227  0.54637217  0.39646068    -0.11500
C1156       C  0.19269885  0.53861652  0.37758819    -0.13000
C1157       C  0.05022513  0.85947372  0.17384044    -0.11500
C1158       C  0.04847721  0.87315622  0.14831698    -0.13000
C1159       C  0.47407612  0.83521098  0.18270174    -0.11500
C1160       C  0.47359002  0.85717903  0.17523347    -0.13000
C1161       C  0.45132095  0.81982059  0.39308770    -0.11500
C1162       C  0.45775469  0.80663663  0.37126526    -0.13000
C1163       C  0.04432111  0.84520519  0.38490436    -0.11500
C1164       C  0.04449732  0.86667208  0.39749276    -0.13000
C1165       C  0.46888515  0.65875678  0.13963897    -0.11500
C1166       C  0.46468839  0.63654645  0.12423864    -0.13000
C1167       C  0.04722697  0.68166216  0.11900622    -0.11500
C1168       C  0.04324271  0.69580146  0.14245066    -0.13000
C1169       C  0.02971777  0.66444406  0.33977477    -0.11500
C1170       C  0.02812553  0.64103828  0.34464874    -0.13000
C1171       C  0.46371229  0.63230597  0.37556886    -0.11500
C1172       C  0.46521615  0.64971370  0.35367179    -0.13000
C1173       C  0.29663366  0.84137461  0.36630788    -0.11500
C1174       C  0.31486320  0.86320978  0.38286497    -0.13000
C1175       C  0.34514262  0.80233615  0.35972605    -0.11500
C1176       C  0.36266347  0.81654682  0.38359844    -0.13000
C1177       C  0.38581545  0.85560195  0.16528467    -0.11500
C1178       C  0.36322148  0.83297515  0.17024718    -0.13000
C1179       C  0.30933638  0.85094930  0.16108115    -0.11500
C1180       C  0.32852797  0.86684919  0.14083246    -0.13000
C1181       C  0.13251488  0.67664330  0.10428140    -0.11500
C1182       C  0.15301882  0.68897843  0.12493224    -0.13000
C1183       C  0.17557679  0.63297876  0.10494895    -0.11500
C1184       C  0.19604860  0.65479205  0.11845531    -0.13000
C1185       C  0.16842257  0.62447017  0.35792474    -0.11500
C1186       C  0.18365799  0.64023704  0.33375809    -0.13000
C1187       C  0.13335589  0.65618051  0.31743233    -0.11500
C1188       C  0.11089940  0.63445075  0.32552080    -0.13000
O1189       O  0.22554920  0.68571114  0.83213843    -0.73500
O1190       O  0.19333146  0.66244457  0.78473481    -0.52400
C1191       C  0.20129047  0.66554219  0.81916796     0.80200
O1192       O  0.25289465  0.80077101  0.85483864    -0.58100
O1193       O  0.29166680  0.82867867  0.81825213    -0.51100
C1194       C  0.27862406  0.82281845  0.84960857     0.72200
O1195       O  0.17240336  0.70963281  0.82951404    -0.72700
O1196       O  0.15914366  0.68075588  0.77697539    -0.53200
C1197       C  0.15515533  0.68575915  0.81091233     0.78200
O1198       O  0.30851324  0.76197422  0.84159994    -0.57800
O1199       O  0.32341730  0.80599238  0.81635138    -0.50900
C1200       C  0.32432638  0.78966660  0.84137615     0.74800
Zr1201     Zr  0.26830863  0.72428904  0.80395925     2.54700
O1202       O  0.28039033  0.70703454  0.86007007    -0.78400
O1203       O  0.29111056  0.69697179  0.78215529    -0.91800
Zr1204     Zr  0.21578842  0.75848902  0.81489194     2.64700
O1205       O  0.19832598  0.75552787  0.87865966    -0.96700
O1206       O  0.18677524  0.78148335  0.80519434    -0.78800
O1207       O  0.22475894  0.72237604  0.79789711    -0.82200
O1208       O  0.26318707  0.76486372  0.81709451    -2.16900
O1209       O  0.32173320  0.78659578  0.68349333    -0.65600
O1210       O  0.33205318  0.81817350  0.73305659    -0.50100
C1211       C  0.33738697  0.81166429  0.70059721     0.73200
O1212       O  0.19050051  0.73523500  0.66218704    -0.58500
O1213       O  0.16926141  0.69308199  0.69362618    -0.50400
C1214       C  0.17198653  0.70822520  0.66502530     0.75000
O1215       O  0.26402417  0.82109822  0.68648106    -0.69900
O1216       O  0.29957775  0.83866540  0.73136454    -0.48500
C1217       C  0.28964219  0.83932644  0.69898976     0.76400
O1218       O  0.23557225  0.69973989  0.65538396    -0.65200
O1219       O  0.20151890  0.66884991  0.69527540    -0.52400
C1220       C  0.21168316  0.67606430  0.66253209     0.74800
Zr1221     Zr  0.27553496  0.73865287  0.69538666     2.77500
O1222       O  0.29015657  0.74000643  0.63040449    -0.95900
O1223       O  0.30196428  0.71265894  0.70175348    -0.76800
Zr1224     Zr  0.22402771  0.77363767  0.70536788     2.70100
O1225       O  0.21756723  0.79291470  0.64711761    -0.78000
O1226       O  0.18918762  0.78864124  0.72233074    -0.97100
Zr1227     Zr  0.20328941  0.70119391  0.74302795     2.21500
Zr1228     Zr  0.28850663  0.79710596  0.76788834     2.11100
O1229       O  0.27097039  0.77956397  0.70582939    -2.45800
O1230       O  0.23095627  0.73486423  0.70117283    -0.77800
O1231       O  0.29603917  0.75703381  0.75648766    -0.70000
O1232       O  0.19581156  0.74127946  0.75335980    -2.30900
O1233       O  0.24975916  0.70444155  0.74301784    -2.27200
O1234       O  0.24160351  0.79287814  0.76703831    -0.71800
H1235       H  0.27051901  0.77105806  0.84221394     0.80200
H1236       H  0.17553073  0.73568498  0.75156812     0.81300
H1237       H  0.28164854  0.79109967  0.68509955     0.83600
H1238       H  0.24828423  0.68584017  0.73830490     0.81200
H1239       H  0.16659005  0.76593519  0.80925393     0.44200
H1240       H  0.19923917  0.80956433  0.71731686     0.43200
H1241       H  0.22734463  0.78729532  0.62787936     0.42800
H1242       H  0.29167950  0.75788584  0.62050225     0.40800
H1243       H  0.32150872  0.72755404  0.71065917     0.43900
H1244       H  0.28000493  0.67795762  0.79407470     0.38700
H1245       H  0.27169884  0.71245958  0.88097458     0.44800
H1246       H  0.21389733  0.75656645  0.89490848     0.41200
H1247       H  0.31040333  0.74400741  0.63186512     0.46200
H1248       H  0.31025145  0.70636466  0.79497132     0.44900
H1249       H  0.19879599  0.77409888  0.88341046     0.45000
H1250       H  0.17394198  0.77972459  0.70259272     0.45400
O1251       O  0.02497658  0.70515344  0.81803460    -0.73500
O1252       O  0.00914098  0.67551543  0.76609504    -0.52400
C1253       C  0.01793069  0.68100286  0.80008847     0.80200
O1254       O  0.44514582  0.76237982  0.82103750    -0.58100
O1255       O  0.47567032  0.80559286  0.79467337    -0.51100
C1256       C  0.45784348  0.79014728  0.81971516     0.72200
O1257       O  0.44809764  0.68254587  0.81661128    -0.72700
O1258       O  0.45667112  0.65794834  0.77069270    -0.53200
C1259       C  0.45146065  0.66150322  0.80483329     0.78200
O1260       O  0.03922995  0.79863014  0.83831787    -0.57800
O1261       O  0.03023019  0.82654380  0.79909395    -0.50900
C1262       C  0.03721375  0.82136562  0.83097958     0.74800
Zr1263     Zr  0.03170707  0.75400284  0.80229900     2.54700
O1264       O  0.03899984  0.74971367  0.86872173    -0.78400
O1265       O  0.08405959  0.77482230  0.80063535    -0.91800
Zr1266     Zr  0.44602204  0.72232871  0.78645493     2.64700
O1267       O  0.41407940  0.70465151  0.84032391    -0.96700
O1268       O  0.39644099  0.69686726  0.76227499    -0.78800
O1269       O  0.48668576  0.71863797  0.78338975    -0.82200
O1270       O  0.49210947  0.76245116  0.80063488    -2.16900
O1271       O  0.05259183  0.81498558  0.66961671    -0.65600
O1272       O  0.03529231  0.83444329  0.71265926    -0.50100
C1273       C  0.04576878  0.83390207  0.68056605     0.73200
O1274       O  0.46017004  0.69845486  0.63732865    -0.58500
O1275       O  0.45850843  0.66594659  0.67849569    -0.50400
C1276       C  0.45874188  0.67416158  0.64509012     0.75000
O1277       O  0.46088673  0.78455288  0.66288871    -0.69900
O1278       O  0.48172436  0.81623647  0.71237363    -0.48500
C1279       C  0.47051094  0.80979716  0.67956448     0.76400
O1280       O  0.03920125  0.72903419  0.65303357    -0.65200
O1281       O  0.01418733  0.68662050  0.68344605    -0.52400
C1282       C  0.02902206  0.70178588  0.65605223     0.74800
Zr1283     Zr  0.04336278  0.76824401  0.69325816     2.77500
O1284       O  0.07412301  0.78137287  0.63816430    -0.95900
O1285       O  0.09177339  0.78558852  0.71899580    -0.76800
Zr1286     Zr  0.45734704  0.73615688  0.67731123     2.70100
O1287       O  0.44495565  0.73930608  0.61254606    -0.78000
O1288       O  0.40474552  0.70946904  0.68070401    -0.97100
Zr1289     Zr  0.48745402  0.69649537  0.72950309     2.21500
Zr1290     Zr  0.50192016  0.79422831  0.74961989     2.11100
O1291       O  0.50333744  0.77587213  0.68877137    -2.45800
O1292       O  0.49691355  0.73075664  0.68709366    -0.77800
O1293       O  0.04345169  0.78830038  0.75355456    -0.70000
O1294       O  0.44558597  0.70185401  0.72609823    -2.30900
O1295       O  0.03549743  0.73545931  0.74217994    -2.27200
O1296       O  0.45394021  0.75507589  0.73731007    -0.71800
H1297       H  0.49121207  0.76964945  0.82524055     0.80200
H1298       H  0.42821462  0.68358860  0.72089983     0.81300
H1299       H  0.50476303  0.78695313  0.66726061     0.83600
H1300       H  0.04970383  0.72915744  0.74210212     0.81200
H1301       H  0.38864101  0.67666554  0.77013462     0.44200
H1302       H  0.39876180  0.72334466  0.67257018     0.43200
H1303       H  0.46375377  0.74881678  0.59951058     0.42800
H1304       H  0.06264787  0.78352049  0.61794147     0.40800
H1305       H  0.10164972  0.80683656  0.71660805     0.43900
H1306       H  0.08718570  0.75844090  0.80582733     0.38700
H1307       H  0.01921228  0.73860833  0.87887008     0.44800
H1308       H  0.42660874  0.71486178  0.86236306     0.41200
H1309       H  0.09023754  0.80123240  0.64347203     0.46200
H1310       H  0.09123852  0.78730662  0.82352947     0.44900
H1311       H  0.40098807  0.71274838  0.83817295     0.45000
H1312       H  0.39854990  0.69499312  0.65987547     0.45400
O1313       O  0.19340550  0.95579401  0.83861652    -0.73500
O1314       O  0.16644474  0.96848550  0.80284256    -0.52400
C1315       C  0.17200757  0.96020511  0.83345642     0.80200
O1316       O  0.30400227  0.54233837  0.84907905    -0.58100
O1317       O  0.32333256  0.51919897  0.81576899    -0.51100
C1318       C  0.32227365  0.53324532  0.84472732     0.72200
O1319       O  0.21715879  0.53556063  0.83751864    -0.72700
O1320       O  0.18654046  0.52702184  0.78823122    -0.53200
C1321       C  0.19335392  0.53211784  0.82325478     0.78200
O1322       O  0.27137748  0.94850218  0.81366389    -0.57800
O1323       O  0.30747761  0.97063345  0.77111570    -0.50900
C1324       C  0.29703312  0.95668322  0.80100577     0.74800
Zr1325     Zr  0.22906106  0.95391520  0.79657457     2.54700
O1326       O  0.21933958  0.92415237  0.85142352    -0.78400
O1327       O  0.19925944  0.90508368  0.77086921    -0.91800
Zr1328     Zr  0.26276167  0.54043946  0.81339674     2.64700
O1329       O  0.26359172  0.55628541  0.87820877    -0.96700
O1330       O  0.28722191  0.59266094  0.80697297    -0.78800
O1331       O  0.23112132  0.99749476  0.80300588    -0.82200
O1332       O  0.27391442  0.99715509  0.80268004    -2.16900
O1333       O  0.26200120  0.95953164  0.65362682    -0.65600
O1334       O  0.30392725  0.98014293  0.68834577    -0.50100
C1335       C  0.28886115  0.96686207  0.65889809     0.73200
O1336       O  0.24259800  0.54892672  0.66221619    -0.58500
O1337       O  0.20526143  0.54147031  0.69952066    -0.50400
C1338       C  0.21766841  0.54678439  0.66779043     0.75000
O1339       O  0.32726421  0.55346215  0.69137151    -0.69900
O1340       O  0.33796255  0.52918820  0.73473957    -0.48500
C1341       C  0.34350859  0.54421265  0.70544601     0.76400
O1342       O  0.18242409  0.96860739  0.66520863    -0.65200
O1343       O  0.16289043  0.98108526  0.71384974    -0.52400
C1344       C  0.16300985  0.97362706  0.67933408     0.74800
Zr1345     Zr  0.22390131  0.96420911  0.68805145     2.77500
O1346       O  0.21260036  0.95506285  0.62120883    -0.95900
O1347       O  0.19388204  0.91191254  0.69028631    -0.76800
Zr1348     Zr  0.27992004  0.55052751  0.70524605     2.70100
O1349       O  0.30130964  0.57869767  0.64953890    -0.78000
O1350       O  0.30090476  0.60020018  0.72837141    -0.97100
Zr1351     Zr  0.20167550  0.00157262  0.76112513     2.21500
Zr1352     Zr  0.29564484  0.00316167  0.74256482     2.11100
O1353       O  0.26894037  0.00757573  0.69187212    -2.45800
O1354       O  0.22277747  0.00718791  0.70134154    -0.77800
O1355       O  0.25096315  0.95831343  0.73722438    -0.70000
O1356       O  0.24843847  0.54925011  0.75399421    -2.30900
O1357       O  0.20047523  0.95699353  0.74719510    -2.27200
O1358       O  0.29551419  0.54440556  0.76534206    -0.71800
H1359       H  0.28374510  0.99493176  0.82379592     0.80200
H1360       H  0.24606760  0.56610171  0.75451877     0.81300
H1361       H  0.27741886  0.00892218  0.66767098     0.83600
H1362       H  0.18089992  0.94093155  0.74644047     0.81200
H1363       H  0.27287271  0.59810685  0.81552983     0.44200
H1364       H  0.32173598  0.60920757  0.72231977     0.43200
H1365       H  0.30029845  0.56446551  0.63049781     0.42800
H1366       H  0.22936092  0.97094612  0.60856528     0.40800
H1367       H  0.17505334  0.90773379  0.67935464     0.43900
H1368       H  0.17999193  0.89817581  0.78214327     0.38700
H1369       H  0.22914787  0.93809439  0.87247069     0.44800
H1370       H  0.26361651  0.54113220  0.89368472     0.41200
H1371       H  0.21363024  0.93747832  0.61482664     0.46200
H1372       H  0.20684792  0.89363104  0.78293239     0.44900
H1373       H  0.28309466  0.57340389  0.88211806     0.45000
H1374       H  0.29325398  0.60919723  0.71122332     0.45400
C1375       C  0.03131595  0.57238491  0.85114803     0.04900
C1376       C  0.06238808  0.58894807  0.84726895    -0.11200
C1377       C  0.07642830  0.61763377  0.83331801     0.02400
C1378       C  0.05977868  0.62924200  0.82179154    -0.09800
C1379       C  0.03040231  0.61567054  0.82843312     0.04900
C1380       C  0.01579110  0.58703987  0.84217337    -0.09200
H1381       H  0.07561308  0.58069414  0.85863832     0.10500
H1382       H  0.07057318  0.65111811  0.81124281     0.08000
H1383       H  0.99321149  0.57751853  0.84971413     0.07900
C1384       C  0.06293557  0.62055887  0.57409788     0.04900
C1385       C  0.04612023  0.63376836  0.57931896    -0.11200
C1386       C  0.05923882  0.66260909  0.59140921     0.02400
C1387       C  0.08893346  0.67840733  0.59791654    -0.09800
C1388       C  0.10563428  0.66522165  0.59422565     0.04900
C1389       C  0.09293265  0.63647893  0.58122971    -0.09200
H1390       H  0.02298209  0.62151017  0.57488059     0.10500
H1391       H  0.09861867  0.70026117  0.60958115     0.08000
H1392       H  0.10613015  0.62659374  0.57727618     0.07900
C1393       C  0.04615093  0.93123351  0.57935506     0.04900
C1394       C  0.07456482  0.95241676  0.59303051    -0.11200
C1395       C  0.09018847  0.94485703  0.61800478     0.02400
C1396       C  0.07805832  0.91665147  0.62865624    -0.09800
C1397       C  0.05078730  0.89574335  0.61630371     0.04900
C1398       C  0.03419988  0.90260211  0.59199528    -0.09200
H1399       H  0.08431227  0.97470085  0.58472389     0.10500
H1400       H  0.09017130  0.91082157  0.64774334     0.08000
H1401       H  0.01275541  0.88605247  0.58285392     0.07900
C1402       C  0.44719012  0.55541332  0.60319513     0.04900
C1403       C  0.45853849  0.58489988  0.59322143    -0.11200
C1404       C  0.44766142  0.60180603  0.61015876     0.02400
C1405       C  0.42557377  0.58917104  0.63579574    -0.09800
C1406       C  0.41339665  0.56039534  0.64455264     0.04900
C1407       C  0.42408387  0.54323661  0.62874989    -0.09200
H1408       H  0.47501426  0.59418236  0.57213964     0.10500
H1409       H  0.41703668  0.60196034  0.64873873     0.08000
H1410       H  0.41408101  0.52057612  0.63542303     0.07900
C1411       C  0.44256504  0.56960430  0.92621366     0.04900
C1412       C  0.45731228  0.59469507  0.90418782    -0.11200
C1413       C  0.44107554  0.60343764  0.88185195     0.02400
C1414       C  0.41111344  0.58791053  0.88156735    -0.09800
C1415       C  0.39613935  0.56268306  0.90085349     0.04900
C1416       C  0.41151781  0.55340111  0.92330408    -0.09200
H1417       H  0.48075691  0.60688323  0.90402053     0.10500
H1418       H  0.39905963  0.59477479  0.86397387     0.08000
H1419       H  0.39919764  0.53318793  0.93759020     0.07900
C1420       C  0.11247462  0.56576557  0.92287459     0.04900
C1421       C  0.12596801  0.59396815  0.90891993    -0.11200
C1422       C  0.14863255  0.60236731  0.88328895     0.02400
C1423       C  0.15766998  0.58343637  0.87113290    -0.09800
C1424       C  0.14490792  0.55565129  0.88371354     0.04900
C1425       C  0.12225156  0.54646889  0.90979324    -0.09200
H1426       H  0.11896309  0.60902476  0.91768444     0.10500
H1427       H  0.17511012  0.59053269  0.85096369     0.08000
H1428       H  0.11205407  0.52441862  0.91919399     0.07900
C1429       C  0.05773164  0.94051320  0.90069251     0.04900
C1430       C  0.04204612  0.91012956  0.89323287    -0.11200
C1431       C  0.05712091  0.89477860  0.88636352     0.02400
C1432       C  0.08709409  0.90969819  0.88631471    -0.09800
C1433       C  0.10260462  0.93940473  0.89118747     0.04900
C1434       C  0.08829250  0.95494828  0.89860349    -0.09200
H1435       H  0.01875579  0.89867660  0.89377787     0.10500
H1436       H  0.09861940  0.89815220  0.87983119     0.08000
H1437       H  0.10088175  0.97816378  0.90321187     0.07900
C1438       C  0.11629678  0.55506885  0.59683213     0.04900
C1439       C  0.13445973  0.54281464  0.59992740    -0.11200
C1440       C  0.16434218  0.56054019  0.60717293     0.02400
C1441       C  0.17647248  0.59022318  0.60983947    -0.09800
C1442       C  0.15943757  0.60304604  0.60850165     0.04900
C1443       C  0.12902602  0.58548306  0.60265371    -0.09200
H1444       H  0.12535084  0.51964416  0.59680108     0.10500
H1445       H  0.19954137  0.60353037  0.61588918     0.08000
H1446       H  0.11553724  0.59517780  0.60184973     0.07900
O1447       O  0.03837615  0.56975296  0.58215764    -0.84700
O1448       O  0.00367358  0.52209833  0.88033752    -0.84900
O1449       O  0.07084568  0.56673273  0.95114776    -0.86500
O1450       O  0.98575971  0.56787852  0.94942135    -0.85300
O1451       O  0.44033574  0.53609046  0.96954487    -0.84900
O1452       O  0.08238357  0.53224615  0.96634889    -0.86300
O1453       O  0.02775919  0.56561506  0.91327758    -0.84700
O1454       O  0.04809142  0.58875922  0.52285091    -0.84300
Zr1455     Zr  0.02045005  0.55234310  0.97521486     2.84300
O1456       O  0.47544154  0.51564257  0.95213861    -1.06300
O1457       O  0.04378956  0.53273934  0.52586390    -1.07000
C1458       C  0.04915805  0.59095070  0.55891854     1.08400
C1459       C  0.01966461  0.55098792  0.88276543     1.08300
C1460       C  0.08740813  0.55504026  0.94915849     1.11300
C1461       C  0.45773229  0.55780773  0.95016501     1.09100
H1462       H  0.03717422  0.51832347  0.92949216     0.34700
O1463       O  0.02470930  0.51347437  0.95089021    -1.27200
H1464       H  0.49417332  0.55013276  0.53257146     0.34300
O1465       O  0.99561187  0.53338436  0.52554554    -1.28900
O1466       O  0.46318039  0.92264952  0.92137794    -0.84700
O1467       O  0.48304014  0.97395812  0.62192832    -0.86200
O1468       O  0.05649427  0.96861123  0.95065024    -0.84800
O1469       O  0.41499056  0.96742340  0.95322254    -0.84800
O1470       O  0.44470990  0.52513550  0.55199563    -0.84500
O1471       O  0.08552509  0.52362842  0.54940679    -0.84300
O1472       O  0.00224935  0.92952133  0.55213872    -0.84700
O1473       O  0.41635801  0.93051667  0.55349577    -0.84200
O1474       O  0.04788151  0.96263476  0.53356746    -0.85200
O1475       O  0.40359034  0.96340957  0.53522478    -0.84400
O1476       O  0.02240016  0.95736271  0.90411929    -0.84800
O1477       O  0.06370580  0.53617484  0.59588217    -0.84500
O1478       O  0.47814979  0.53430264  0.59891452    -0.84200
O1479       O  0.43819406  0.95789474  0.90532828    -0.84600
O1480       O  0.45356316  0.90302063  0.98041817    -0.84900
O1481       O  0.45800896  0.93063782  0.58875267    -0.86200
Zr1482     Zr  0.48957319  0.97589218  0.92633912     2.83100
Zr1483     Zr  0.01130896  0.51643026  0.57699865     2.83500
Zr1484     Zr  0.04988971  0.49571304  0.50088799     2.84100
Zr1485     Zr  0.45105183  0.49607851  0.50243925     2.83400
Zr1486     Zr  0.46627786  0.94450503  0.52754623     2.84200
O1487       O  0.45989221  0.98218778  0.55138796    -1.06800
O1488       O  0.00598109  0.95900771  0.97694563    -1.06300
C1489       C  0.45238155  0.90121096  0.94421791     1.08400
C1490       C  0.46756429  0.94501795  0.61918830     1.11000
C1491       C  0.04435156  0.95647566  0.91909161     1.08600
C1492       C  0.41508689  0.95580520  0.92103661     1.08900
C1493       C  0.45712998  0.53674398  0.58388686     1.08500
C1494       C  0.08631715  0.53693476  0.58032259     1.08000
C1495       C  0.03056906  0.94068194  0.55259184     1.08500
C1496       C  0.39888584  0.94120203  0.55357544     1.08000
H1497       H  0.01842573  0.97767657  0.57238882     0.34700
O1498       O  0.01043284  0.98240716  0.55127089    -1.27900
H1499       H  0.43931723  0.94211776  0.97182876     0.34700
O1500       O  0.45767903  0.95864783  0.97872452    -1.29300
C1501       C  0.37188916  0.92937748  0.57714172     0.04900
C1502       C  0.35670380  0.94528087  0.57971056    -0.11200
C1503       C  0.33189757  0.93572240  0.60193298     0.03700
C1504       C  0.32184087  0.91048711  0.62105511    -0.09800
C1505       C  0.33700999  0.89570248  0.62151299     0.04900
C1506       C  0.36202538  0.90462279  0.59946318    -0.09200
H1507       H  0.36447243  0.96548890  0.56545807     0.10500
H1508       H  0.30282088  0.90336739  0.63851234     0.08000
H1509       H  0.37376938  0.89293338  0.60024875     0.07900
C1510       C  0.38610228  0.93873308  0.90172006     0.04900
C1511       C  0.37555333  0.95346384  0.88015424    -0.11200
C1512       C  0.34693759  0.93869351  0.86626992     0.02400
C1513       C  0.32874567  0.90994338  0.87381501    -0.09800
C1514       C  0.33816299  0.89434793  0.89396724     0.04900
C1515       C  0.36709296  0.90864653  0.90839610    -0.09200
H1516       H  0.38930095  0.97624072  0.87477121     0.10500
H1517       H  0.30674702  0.89910369  0.86245727     0.08000
H1518       H  0.37453146  0.89687196  0.92494285     0.07900
C1519       C  0.45904420  0.92296050  0.64978665     0.04900
C1520       C  0.47408009  0.90678685  0.65022786    -0.11200
C1521       C  0.45979912  0.87717390  0.66050108     0.02400
C1522       C  0.43147544  0.86412034  0.67213596    -0.09800
C1523       C  0.41535406  0.87774580  0.67020254     0.04900
C1524       C  0.42894087  0.90728512  0.65971306    -0.09200
H1525       H  0.49559811  0.91619008  0.63860901     0.10500
H1526       H  0.42077324  0.84152787  0.67993239     0.08000
H1527       H  0.41555966  0.91698211  0.65529790     0.07900
C1528       C  0.43675612  0.87188479  0.92785430     0.04900
C1529       C  0.40636356  0.85727777  0.92495056    -0.11200
C1530       C  0.39161012  0.82932838  0.90912147     0.02400
C1531       C  0.40671804  0.81571704  0.89760566    -0.09800
C1532       C  0.43668026  0.83059875  0.89816211     0.04900
C1533       C  0.45197746  0.85853357  0.91397213    -0.09200
H1534       H  0.39453193  0.86797354  0.93343426     0.10500
H1535       H  0.39515420  0.79458813  0.88367255     0.08000
H1536       H  0.47530592  0.86995319  0.91468203     0.07900
C1537       C  0.30367950  0.95994285  0.62994622    -0.11500
C1538       C  0.31781832  0.95224168  0.61135184    -0.13000
C1539       C  0.38853591  0.54989863  0.66799577    -0.11500
C1540       C  0.36841452  0.54814324  0.68545962    -0.13000
C1541       C  0.34352155  0.53909105  0.87394336    -0.11500
C1542       C  0.36542112  0.54621947  0.89214096    -0.13000
C1543       C  0.31704583  0.95312052  0.82363006    -0.11500
C1544       C  0.33430288  0.95100356  0.84303869    -0.13000
C1545       C  0.20108866  0.54815458  0.63705154    -0.11500
C1546       C  0.18308846  0.54986211  0.61852187    -0.13000
C1547       C  0.13979532  0.97066462  0.65459657    -0.11500
C1548       C  0.11853791  0.96403432  0.63493476    -0.13000
C1549       C  0.15317073  0.95685573  0.86366666    -0.11500
C1550       C  0.13252758  0.95280720  0.88172562    -0.13000
C1551       C  0.15676709  0.53859854  0.86775389    -0.11500
C1552       C  0.17267903  0.53370193  0.84836799    -0.13000
C1553       C  0.04427333  0.85207868  0.65283727    -0.11500
C1554       C  0.04190191  0.86818386  0.63186502    -0.13000
C1555       C  0.47029829  0.83403251  0.66156768    -0.11500
C1556       C  0.47052840  0.85679605  0.65686110    -0.13000
C1557       C  0.44990828  0.81857313  0.87487108    -0.11500
C1558       C  0.45382610  0.80544138  0.85009135    -0.13000
C1559       C  0.04108696  0.84260868  0.85973988    -0.11500
C1560       C  0.04415560  0.86444365  0.87538992    -0.13000
C1561       C  0.45906154  0.65471478  0.61612343    -0.11500
C1562       C  0.45776922  0.63236013  0.60488753    -0.13000
C1563       C  0.04265347  0.67466758  0.60590560    -0.11500
C1564       C  0.03472655  0.68708897  0.62668873    -0.13000
C1565       C  0.01817663  0.65700577  0.81828648    -0.11500
C1566       C  0.01868708  0.63503567  0.82545578    -0.13000
C1567       C  0.45260210  0.62686340  0.85608413    -0.11500
C1568       C  0.45241151  0.64258001  0.83227990    -0.13000
C1569       C  0.29624324  0.84215300  0.88019739    -0.11500
C1570       C  0.31697521  0.86353888  0.89427161    -0.13000
C1571       C  0.34360293  0.80376990  0.87221201    -0.11500
C1572       C  0.36284205  0.81667689  0.89461422    -0.13000
C1573       C  0.38443208  0.85789864  0.67528269    -0.11500
C1574       C  0.36219413  0.83568066  0.68292446    -0.13000
C1575       C  0.31017176  0.85845368  0.67259241    -0.11500
C1576       C  0.32613920  0.87325434  0.64835896    -0.13000
C1577       C  0.13363191  0.67985411  0.61180140    -0.11500
C1578       C  0.15287741  0.69354496  0.63404881    -0.13000
C1579       C  0.17495595  0.63374340  0.61797230    -0.11500
C1580       C  0.19345703  0.65593402  0.63325664    -0.13000
C1581       C  0.16374456  0.62981603  0.86664192    -0.11500
C1582       C  0.18085622  0.64700621  0.84556110    -0.13000
C1583       C  0.13014071  0.66137556  0.82818686    -0.11500
C1584       C  0.10758046  0.63877479  0.83397358    -0.13000
O1585       O  0.72554825  0.18570921  0.33213664    -0.73500
O1586       O  0.69333179  0.16244329  0.28473164    -0.52400
C1587       C  0.70128987  0.16554033  0.31916503     0.80200
O1588       O  0.75289639  0.30077087  0.35483849    -0.58100
O1589       O  0.79166599  0.32867970  0.31824905    -0.51100
C1590       C  0.77862510  0.32281900  0.34960674     0.72200
O1591       O  0.67240353  0.20963250  0.32951351    -0.72700
O1592       O  0.65914396  0.18075619  0.27697434    -0.53200
C1593       C  0.65515525  0.18575918  0.31091120     0.78200
O1594       O  0.80851349  0.26197387  0.34160042    -0.57800
O1595       O  0.82341732  0.30599211  0.31635194    -0.50900
C1596       C  0.82432640  0.28966638  0.34137671     0.74800
Zr1597     Zr  0.76830863  0.22428809  0.30395998     2.54700
O1598       O  0.78038471  0.20702590  0.36006804    -0.78400
O1599       O  0.79111268  0.19697375  0.28215210    -0.91800
Zr1600     Zr  0.71578905  0.25848891  0.31489224     2.64700
O1601       O  0.69832293  0.25552949  0.37865770    -0.96700
O1602       O  0.68677616  0.28148353  0.30519490    -0.78800
O1603       O  0.72475902  0.22237542  0.29789767    -0.82200
O1604       O  0.76318760  0.26486316  0.31709523    -2.16900
O1605       O  0.82173443  0.28659629  0.18349509    -0.65600
O1606       O  0.83205515  0.31817277  0.23305985    -0.50100
C1607       C  0.83738864  0.31166439  0.20059981     0.73200
O1608       O  0.69049993  0.23523539  0.16218853    -0.58500
O1609       O  0.66926151  0.19308219  0.19362715    -0.50400
C1610       C  0.67198604  0.20822562  0.16502680     0.75000
O1611       O  0.76402498  0.32109797  0.18648081    -0.69900
O1612       O  0.79957970  0.33866432  0.23136279    -0.48500
C1613       C  0.78964334  0.33932579  0.19898874     0.76400
O1614       O  0.73557418  0.19973998  0.15538424    -0.65200
O1615       O  0.70151886  0.16885053  0.19527428    -0.52400
C1616       C  0.71168433  0.17606482  0.16253151     0.74800
Zr1617     Zr  0.77553651  0.23865267  0.19538801     2.77500
O1618       O  0.79016291  0.24000298  0.13040880    -0.95900
O1619       O  0.80196687  0.21266029  0.20176176    -0.76800
Zr1620     Zr  0.72402877  0.27363756  0.20536822     2.70100
O1621       O  0.71756466  0.29291235  0.14711821    -0.78000
O1622       O  0.68918988  0.28864170  0.22233512    -0.97100
Zr1623     Zr  0.70329007  0.20119412  0.24302780     2.21500
Zr1624     Zr  0.78850717  0.29710539  0.26788859     2.11100
O1625       O  0.77097077  0.27956285  0.20583065    -2.45800
O1626       O  0.73095765  0.23486423  0.20117283    -0.77800
O1627       O  0.79603968  0.25703322  0.25648912    -0.70000
O1628       O  0.69581183  0.24127950  0.25335998    -2.30900
O1629       O  0.74975962  0.20444296  0.24301883    -2.27200
O1630       O  0.74160427  0.29287793  0.26703856    -0.71800
H1631       H  0.77051947  0.27105738  0.34221496     0.80200
H1632       H  0.67553270  0.23568572  0.25156859     0.81300
H1633       H  0.78165050  0.29110038  0.18509746     0.83600
H1634       H  0.74828402  0.18583707  0.23830469     0.81200
H1635       H  0.66659560  0.26594779  0.30931567     0.44200
H1636       H  0.69924042  0.30956458  0.21731603     0.43200
H1637       H  0.72734323  0.28729448  0.12787966     0.42800
H1638       H  0.79168639  0.25788139  0.12050328     0.40800
H1639       H  0.82150859  0.22755463  0.21067719     0.43900
H1640       H  0.78000863  0.17795939  0.29407011     0.38700
H1641       H  0.77169863  0.21245579  0.38097400     0.44800
H1642       H  0.71389362  0.25656859  0.39490899     0.41200
H1643       H  0.81041002  0.24400444  0.13187356     0.46200
H1644       H  0.81025421  0.20636763  0.29496791     0.44900
H1645       H  0.69879269  0.27410036  0.38340629     0.45000
H1646       H  0.67394161  0.27972217  0.20260190     0.45400
O1647       O  0.52497505  0.20515085  0.31803417    -0.73500
O1648       O  0.50913610  0.17551145  0.26609592    -0.52400
C1649       C  0.51792731  0.18099954  0.30008866     0.80200
O1650       O  0.94514198  0.26237907  0.32103381    -0.58100
O1651       O  0.97566974  0.30559237  0.29467273    -0.51100
C1652       C  0.95784086  0.29014667  0.31971261     0.72200
O1653       O  0.94809072  0.18254251  0.31660834    -0.72700
O1654       O  0.95666723  0.15794601  0.27069134    -0.53200
C1655       C  0.95145485  0.16150031  0.30483122     0.78200
O1656       O  0.53922688  0.29862804  0.33831952    -0.57800
O1657       O  0.53022986  0.32654258  0.29909374    -0.50900
C1658       C  0.53721207  0.32136416  0.33098008     0.74800
Zr1659     Zr  0.53170370  0.25400024  0.30230138     2.54700
O1660       O  0.53898644  0.24970189  0.36872447    -0.78400
O1661       O  0.58405705  0.27482468  0.30064544    -0.91800
Zr1662     Zr  0.94601885  0.22232772  0.28645272     2.64700
O1663       O  0.91407784  0.20465236  0.34032334    -0.96700
O1664       O  0.89643888  0.19687082  0.26226867    -0.78800
O1665       O  0.98668215  0.21863624  0.28338888    -0.82200
O1666       O  0.99210618  0.26244991  0.30063694    -2.16900
O1667       O  0.55259415  0.31498473  0.16961969    -0.65600
O1668       O  0.53529016  0.33444146  0.21265755    -0.50100
C1669       C  0.54576947  0.33390072  0.18056622     0.73200
O1670       O  0.96017282  0.19845529  0.13732737    -0.58500
O1671       O  0.95850684  0.16594538  0.17849472    -0.50400
C1672       C  0.95874304  0.17416133  0.14508905     0.75000
O1673       O  0.96088812  0.28455319  0.16288853    -0.69900
O1674       O  0.98172288  0.31623510  0.21237566    -0.48500
C1675       C  0.97051124  0.30979690  0.17956559     0.76400
O1676       O  0.53920248  0.22903274  0.15303665    -0.65200
O1677       O  0.51418562  0.18661833  0.18344671    -0.52400
C1678       C  0.52902195  0.20178417  0.15605407     0.74800
Zr1679     Zr  0.54336275  0.26824202  0.19326092     2.77500
O1680       O  0.57412006  0.28136792  0.13816445    -0.95900
O1681       O  0.59177117  0.28558126  0.21900339    -0.76800
Zr1682     Zr  0.95734742  0.23615628  0.17730926     2.70100
O1683       O  0.94496121  0.23930766  0.11254239    -0.78000
O1684       O  0.90474540  0.20946454  0.18069227    -0.97100
Zr1685     Zr  0.98745142  0.19649328  0.22950308     2.21500
Zr1686     Zr  0.00191922  0.29422676  0.24961990     2.11100
O1687       O  0.00333799  0.27587172  0.18877010    -2.45800
O1688       O  0.99691300  0.23075507  0.18709404    -0.77800
O1689       O  0.54345045  0.28829830  0.25355689    -0.70000
O1690       O  0.94558389  0.20185283  0.22609638    -2.30900
O1691       O  0.53549449  0.23545694  0.24218279    -2.27200
O1692       O  0.95393921  0.25507522  0.23730764    -0.71800
H1693       H  0.99120835  0.26964683  0.32523790     0.80200
H1694       H  0.92821257  0.18358786  0.22089754     0.81300
H1695       H  0.00476420  0.28695081  0.16726349     0.83600
H1696       H  0.54970239  0.22915388  0.24210599     0.81200
H1697       H  0.88863643  0.17666892  0.27012850     0.44200
H1698       H  0.89876062  0.22333688  0.17254275     0.43200
H1699       H  0.96376247  0.24883874  0.09951561     0.42800
H1700       H  0.56264517  0.28351768  0.11794332     0.40800
H1701       H  0.60165815  0.30682718  0.21658582     0.43900
H1702       H  0.58718625  0.25844974  0.30586894     0.38700
H1703       H  0.51919716  0.23858896  0.37886576     0.44800
H1704       H  0.92660655  0.21486924  0.36236116     0.41200
H1705       H  0.59023663  0.30122649  0.14347184     0.46200
H1706       H  0.59123473  0.28732691  0.32352443     0.44900
H1707       H  0.90098189  0.21274301  0.33816713     0.45000
H1708       H  0.89855347  0.19498303  0.15987290     0.45400
O1709       O  0.69340381  0.45579220  0.33861622    -0.73500
O1710       O  0.66644408  0.46848608  0.30284386    -0.52400
C1711       C  0.67200644  0.46020426  0.33345693     0.80200
O1712       O  0.80400204  0.04233929  0.34908038    -0.58100
O1713       O  0.82333124  0.01919758  0.31577314    -0.51100
C1714       C  0.82227236  0.03324477  0.34473066     0.72200
O1715       O  0.71715965  0.03556075  0.33752001    -0.72700
O1716       O  0.68654091  0.02702150  0.28823294    -0.53200
C1717       C  0.69335459  0.03211760  0.32325649     0.78200
O1718       O  0.77137710  0.44850212  0.31366349    -0.57800
O1719       O  0.80747654  0.47063270  0.27111437    -0.50900
C1720       C  0.79703259  0.45668310  0.30100490     0.74800
Zr1721     Zr  0.72906024  0.45391470  0.29657484     2.54700
O1722       O  0.71934152  0.42415507  0.35142663    -0.78400
O1723       O  0.69925917  0.40508260  0.27087107    -0.91800
Zr1724     Zr  0.76276212  0.04044011  0.31339658     2.64700
O1725       O  0.76359363  0.05628739  0.37820834    -0.96700
O1726       O  0.78722022  0.09266127  0.30696907    -0.78800
O1727       O  0.73112042  0.49749428  0.30300584    -0.82200
O1728       O  0.77391302  0.49715484  0.30267920    -2.16900
O1729       O  0.76199934  0.45952852  0.15362805    -0.65600
O1730       O  0.80392628  0.48014265  0.18834518    -0.50100
C1731       C  0.78885970  0.46686019  0.15889847     0.73200
O1732       O  0.74259794  0.04892595  0.16221618    -0.58500
O1733       O  0.70526185  0.04147018  0.19952119    -0.50400
C1734       C  0.71766855  0.04678396  0.16779076     0.75000
O1735       O  0.82726438  0.05346181  0.19137167    -0.69900
O1736       O  0.83796415  0.02919055  0.23474213    -0.48500
C1737       C  0.84350944  0.04421353  0.20544720     0.76400
O1738       O  0.68242295  0.46860692  0.16520884    -0.65200
O1739       O  0.66288882  0.48108364  0.21385059    -0.52400
C1740       C  0.66300844  0.47362602  0.17933470     0.74800
Zr1741     Zr  0.72389984  0.46420781  0.18805113     2.77500
O1742       O  0.71260373  0.45506485  0.12120697    -0.95900
O1743       O  0.69387681  0.41191145  0.19028220    -0.76800
Zr1744     Zr  0.77992023  0.05052705  0.20524578     2.70100
O1745       O  0.80130512  0.07869585  0.14953618    -0.78000
O1746       O  0.80090813  0.10020056  0.22836903    -0.97100
Zr1747     Zr  0.70167459  0.50157199  0.26112496     2.21500
Zr1748     Zr  0.79564336  0.50316071  0.24256470     2.11100
O1749       O  0.76893879  0.50757420  0.19187242    -2.45800
O1750       O  0.72277631  0.50718664  0.20134125    -0.77800
O1751       O  0.75096174  0.45831236  0.23722436    -0.70000
O1752       O  0.74843878  0.04924987  0.25399380    -2.30900
O1753       O  0.70047289  0.45699158  0.24719520    -2.27200
O1754       O  0.79551476  0.04440603  0.26534218    -0.71800
H1755       H  0.78374502  0.49493149  0.32379736     0.80200
H1756       H  0.74606784  0.06610215  0.25451786     0.81300
H1757       H  0.77741838  0.50892050  0.16766866     0.83600
H1758       H  0.68090105  0.44093248  0.24644097     0.81200
H1759       H  0.77287230  0.09810725  0.31553050     0.44200
H1760       H  0.82174073  0.10920399  0.22232734     0.43200
H1761       H  0.80031624  0.06446794  0.13050455     0.42800
H1762       H  0.72936710  0.47094580  0.10856499     0.40800
H1763       H  0.67505028  0.40773446  0.17934517     0.43900
H1764       H  0.67999004  0.39817677  0.28213961     0.38700
H1765       H  0.72915089  0.43809812  0.37247223     0.44800
H1766       H  0.76362326  0.04113717  0.39368499     0.41200
H1767       H  0.71362917  0.43747760  0.11482580     0.46200
H1768       H  0.70684411  0.39362923  0.28294022     0.44900
H1769       H  0.78309533  0.07340891  0.38211474     0.45000
H1770       H  0.79326530  0.10920063  0.21121356     0.45400
C1771       C  0.53131561  0.07238380  0.35114740     0.04900
C1772       C  0.56238769  0.08894786  0.34726789    -0.11200
C1773       C  0.57642691  0.11763319  0.33331570     0.02400
C1774       C  0.55977620  0.12924005  0.32178856    -0.09800
C1775       C  0.53039990  0.11566792  0.32843135     0.04900
C1776       C  0.51578974  0.08703761  0.34217258    -0.09200
H1777       H  0.57561340  0.08069492  0.35863773     0.10500
H1778       H  0.57056983  0.15111587  0.31123891     0.08000
H1779       H  0.49321025  0.07751584  0.34971417     0.07900
C1780       C  0.56293660  0.12055987  0.07409618     0.04900
C1781       C  0.54612110  0.13376930  0.07931595    -0.11200
C1782       C  0.55923920  0.16260988  0.09140673     0.02400
C1783       C  0.58893374  0.17840837  0.09791460    -0.09800
C1784       C  0.60563472  0.16522278  0.09422496     0.04900
C1785       C  0.59293352  0.13648003  0.08122925    -0.09200
H1786       H  0.52298307  0.12151102  0.07487680     0.10500
H1787       H  0.59861856  0.20026209  0.10957953     0.08000
H1788       H  0.60613116  0.12659485  0.07727707     0.07900
C1789       C  0.54615077  0.43123155  0.07935293     0.04900
C1790       C  0.57456410  0.45241514  0.09302959    -0.11200
C1791       C  0.59018814  0.44485552  0.11800328     0.02400
C1792       C  0.57805914  0.41664965  0.12865291    -0.09800
C1793       C  0.55078851  0.39574103  0.11629985     0.04900
C1794       C  0.53420059  0.40259969  0.09199178    -0.09200
H1795       H  0.58431080  0.47469950  0.08472439     0.10500
H1796       H  0.59017253  0.41081999  0.14773967     0.08000
H1797       H  0.51275640  0.38604978  0.08284991     0.07900
C1798       C  0.94718957  0.05541258  0.10319392     0.04900
C1799       C  0.95853913  0.08489936  0.09322085    -0.11200
C1800       C  0.94766188  0.10180571  0.11015690     0.02400
C1801       C  0.92557284  0.08917068  0.13579208    -0.09800
C1802       C  0.91339536  0.06039501  0.14454947     0.04900
C1803       C  0.92408252  0.04323599  0.12874750    -0.09200
H1804       H  0.97501598  0.09418187  0.07214044     0.10500
H1805       H  0.91703571  0.10196022  0.14873425     0.08000
H1806       H  0.91407935  0.02057550  0.13542081     0.07900
C1807       C  0.94256310  0.06960406  0.42621455     0.04900
C1808       C  0.95730905  0.09469441  0.40418750    -0.11200
C1809       C  0.94107099  0.10343723  0.38185447     0.02400
C1810       C  0.91110890  0.08791107  0.38157437    -0.09800
C1811       C  0.89613598  0.06268321  0.40086004     0.04900
C1812       C  0.91151570  0.05340099  0.42330770    -0.09200
H1813       H  0.98075365  0.10688194  0.40401696     0.10500
H1814       H  0.89905407  0.09477552  0.36398315     0.08000
H1815       H  0.89919625  0.03318757  0.43759354     0.07900
C1816       C  0.61247458  0.06576539  0.42287438     0.04900
C1817       C  0.62596740  0.09396745  0.40891807    -0.11200
C1818       C  0.64863208  0.10236622  0.38328740     0.02400
C1819       C  0.65767047  0.08343555  0.37113362    -0.09800
C1820       C  0.64490864  0.05565081  0.38371535     0.04900
C1821       C  0.62225199  0.04646871  0.40979456    -0.09200
H1822       H  0.61896190  0.10902391  0.41768100     0.10500
H1823       H  0.67511084  0.09053166  0.35096479     0.08000
H1824       H  0.61205466  0.02441865  0.41919611     0.07900
C1825       C  0.55773115  0.44051326  0.40069107     0.04900
C1826       C  0.54204530  0.41012978  0.39323020    -0.11200
C1827       C  0.55711977  0.39477831  0.38636223     0.02400
C1828       C  0.58709298  0.40969734  0.38631557    -0.09800
C1829       C  0.60260390  0.43940383  0.39118880     0.04900
C1830       C  0.58829210  0.45494780  0.39860389    -0.09200
H1831       H  0.51875492  0.39867728  0.39377354     0.10500
H1832       H  0.59861809  0.39815100  0.37983303     0.08000
H1833       H  0.60088163  0.47816323  0.40321293     0.07900
C1834       C  0.61629696  0.05506940  0.09683411     0.04900
C1835       C  0.63445958  0.04281487  0.09992978    -0.11200
C1836       C  0.66434230  0.06054027  0.10717371     0.02400
C1837       C  0.67647310  0.09022337  0.10983851    -0.09800
C1838       C  0.65943847  0.10304656  0.10850132     0.04900
C1839       C  0.62902671  0.08548378  0.10265474    -0.09200
H1840       H  0.62535030  0.01964427  0.09680460     0.10500
H1841       H  0.69954221  0.10353045  0.11588683     0.08000
H1842       H  0.61553817  0.09517881  0.10185090     0.07900
O1843       O  0.53837730  0.06975384  0.08215657    -0.84700
O1844       O  0.50367362  0.02209766  0.38033762    -0.84900
O1845       O  0.57084553  0.06673283  0.45114718    -0.86500
O1846       O  0.48575905  0.06787870  0.44942076    -0.85300
O1847       O  0.94033524  0.03609005  0.46954436    -0.84900
O1848       O  0.58238372  0.03224663  0.46634925    -0.86300
O1849       O  0.52776005  0.06561464  0.41327703    -0.84700
O1850       O  0.54809242  0.08875986  0.02284974    -0.84300
Zr1851     Zr  0.52044983  0.05234335  0.47521443     2.84300
O1852       O  0.97544130  0.01564240  0.45213822    -1.06300
O1853       O  0.54379013  0.03274014  0.02586429    -1.07000
C1854       C  0.54915926  0.09095153  0.05891730     1.08400
C1855       C  0.51966502  0.05098721  0.38276513     1.08300
C1856       C  0.58740809  0.05504045  0.44915830     1.11300
C1857       C  0.95773137  0.05780751  0.45016451     1.09100
H1858       H  0.53717514  0.01832388  0.42949094     0.34700
O1859       O  0.52470871  0.01347428  0.45089145    -1.27200
H1860       H  0.99417352  0.05013217  0.03257098     0.34300
O1861       O  0.49561214  0.03338496  0.02554586    -1.28900
O1862       O  0.96318091  0.42265001  0.42137683    -0.84700
O1863       O  0.98303993  0.47395837  0.12192913    -0.86200
O1864       O  0.55649334  0.46861047  0.45064939    -0.84800
O1865       O  0.91499120  0.46742508  0.45322062    -0.84800
O1866       O  0.94470953  0.02513445  0.05199526    -0.84500
O1867       O  0.58552537  0.02362937  0.04940828    -0.84300
O1868       O  0.50224909  0.42951993  0.05213684    -0.84700
O1869       O  0.91635744  0.43051614  0.05349478    -0.84200
O1870       O  0.54788135  0.46263377  0.03356644    -0.85200
O1871       O  0.90358997  0.46340933  0.03522417    -0.84400
O1872       O  0.52240013  0.45736342  0.40411779    -0.84800
O1873       O  0.56370591  0.03617535  0.09588391    -0.84500
O1874       O  0.97814978  0.03430261  0.09891406    -0.84200
O1875       O  0.93819500  0.45789620  0.40532690    -0.84600
O1876       O  0.95356259  0.40302093  0.48041701    -0.84900
O1877       O  0.95801363  0.43063770  0.08875312    -0.86200
Zr1878     Zr  0.98957322  0.47589248  0.42633893     2.83100
Zr1879     Zr  0.51130944  0.01643080  0.07699892     2.83500
Zr1880     Zr  0.54989051  0.99571401  0.00088853     2.84100
Zr1881     Zr  0.95105236  0.99607824  0.00243916     2.83400
Zr1882     Zr  0.96627752  0.44450422  0.02754568     2.84200
O1883       O  0.95989165  0.48218687  0.05138775    -1.06800
O1884       O  0.50598016  0.45900704  0.47694525    -1.06300
C1885       C  0.95238157  0.40121141  0.44421669     1.08400
C1886       C  0.96756647  0.44501814  0.11918908     1.11000
C1887       C  0.54435110  0.45647570  0.41909028     1.08600
C1888       C  0.91508791  0.45580714  0.42103462     1.08900
C1889       C  0.95712959  0.03674325  0.08388632     1.08500
C1890       C  0.58631733  0.03693543  0.08032434     1.08000
C1891       C  0.53056882  0.44068051  0.05259018     1.08500
C1892       C  0.89888526  0.44120157  0.05357443     1.08000
H1893       H  0.51842563  0.47767504  0.07238919     0.34700
O1894       O  0.51043199  0.48240672  0.05126939    -1.27900
H1895       H  0.93931769  0.44211898  0.47182835     0.34700
O1896       O  0.95767828  0.45864770  0.47872412    -1.29300
C1897       C  0.87188820  0.42937666  0.07714006     0.04900
C1898       C  0.85670245  0.44527973  0.07970901    -0.11200
C1899       C  0.83189575  0.43572054  0.10193090     0.03700
C1900       C  0.82183890  0.41048473  0.12105187    -0.09800
C1901       C  0.83700875  0.39570084  0.12151018     0.04900
C1902       C  0.86202454  0.40462186  0.09946111    -0.09200
H1903       H  0.86447121  0.46548804  0.06545719     0.10500
H1904       H  0.80281860  0.40336438  0.13850866     0.08000
H1905       H  0.87376905  0.39293297  0.10024715     0.07900
C1906       C  0.88610373  0.43873519  0.40171744     0.04900
C1907       C  0.87555439  0.45346594  0.38015232    -0.11200
C1908       C  0.84693891  0.43869504  0.36626715     0.02400
C1909       C  0.82874776  0.40994444  0.37381061    -0.09800
C1910       C  0.83816549  0.39434924  0.39396259     0.04900
C1911       C  0.86709520  0.40864835  0.40839211    -0.09200
H1912       H  0.88930143  0.47624310  0.37477045     0.10500
H1913       H  0.80674925  0.39910434  0.36245237     0.08000
H1914       H  0.87453404  0.39687399  0.42493862     0.07900
C1915       C  0.95904591  0.42296120  0.14978825     0.04900
C1916       C  0.97408198  0.40678776  0.15023101    -0.11200
C1917       C  0.95980078  0.37717474  0.16050381     0.02400
C1918       C  0.93147681  0.36412105  0.17213760    -0.09800
C1919       C  0.91535548  0.37774658  0.17020408     0.04900
C1920       C  0.92894244  0.40728589  0.15971420    -0.09200
H1921       H  0.99560033  0.41619109  0.13861309     0.10500
H1922       H  0.92077447  0.34152850  0.17993365     0.08000
H1923       H  0.91556130  0.41698290  0.15529849     0.07900
C1924       C  0.93675570  0.37188528  0.42785299     0.04900
C1925       C  0.90636309  0.35727851  0.42495080    -0.11200
C1926       C  0.89160892  0.32932869  0.40912319     0.02400
C1927       C  0.90671617  0.31571655  0.39760780    -0.09800
C1928       C  0.93667837  0.33059831  0.39816133     0.04900
C1929       C  0.95197637  0.35853365  0.41396973    -0.09200
H1930       H  0.89453193  0.36797471  0.43343469     0.10500
H1931       H  0.89515165  0.29458712  0.38367613     0.08000
H1932       H  0.97530485  0.36995325  0.41467766     0.07900
C1933       C  0.80367794  0.45994072  0.12994656    -0.11500
C1934       C  0.81781654  0.45223969  0.11135130    -0.13000
C1935       C  0.88853551  0.04989895  0.16799425    -0.11500
C1936       C  0.86841495  0.04814368  0.18546007    -0.13000
C1937       C  0.84351891  0.03908983  0.37394832    -0.11500
C1938       C  0.86541784  0.04621858  0.39214749    -0.13000
C1939       C  0.81704583  0.45312128  0.32362908    -0.11500
C1940       C  0.83430355  0.45100502  0.34303710    -0.13000
C1941       C  0.70108872  0.04815437  0.13705211    -0.11500
C1942       C  0.68308850  0.04986210  0.11852274    -0.13000
C1943       C  0.63979391  0.47066371  0.15459730    -0.11500
C1944       C  0.61853680  0.46403332  0.13493487    -0.13000
C1945       C  0.65316970  0.45685439  0.36366753    -0.11500
C1946       C  0.63252686  0.45280591  0.38172716    -0.13000
C1947       C  0.65676791  0.03859792  0.36775643    -0.11500
C1948       C  0.67267977  0.03370141  0.34837019    -0.13000
C1949       C  0.54427515  0.35207699  0.15283551    -0.11500
C1950       C  0.54190377  0.36818165  0.13186191    -0.13000
C1951       C  0.97029946  0.33403295  0.16156952    -0.11500
C1952       C  0.97053001  0.35679683  0.15686385    -0.13000
C1953       C  0.94990509  0.31857227  0.37486850    -0.11500
C1954       C  0.95382264  0.30544062  0.35008833    -0.13000
C1955       C  0.54108541  0.34260786  0.35973955    -0.11500
C1956       C  0.54415426  0.36444330  0.37538857    -0.13000
C1957       C  0.95906406  0.15471497  0.11612280    -0.11500
C1958       C  0.95777137  0.13236021  0.10488676    -0.13000
C1959       C  0.54265340  0.17466728  0.10590502    -0.11500
C1960       C  0.53472644  0.18708760  0.12669001    -0.13000
C1961       C  0.51817320  0.15700244  0.31828651    -0.11500
C1962       C  0.51868386  0.13503236  0.32545508    -0.13000
C1963       C  0.95259594  0.12686127  0.35608378    -0.11500
C1964       C  0.95240494  0.14257700  0.33227845    -0.13000
C1965       C  0.79624563  0.34215391  0.38019452    -0.11500
C1966       C  0.81697805  0.36354011  0.39426743    -0.13000
C1967       C  0.84360235  0.30377010  0.37221297    -0.11500
C1968       C  0.86284097  0.31667755  0.39461571    -0.13000
C1969       C  0.88443347  0.35789940  0.17528495    -0.11500
C1970       C  0.86219569  0.33568127  0.18292721    -0.13000
C1971       C  0.81017231  0.35845299  0.17259102    -0.11500
C1972       C  0.82613894  0.37325331  0.14835682    -0.13000
C1973       C  0.63363165  0.17985511  0.11180247    -0.11500
C1974       C  0.65287661  0.19354562  0.13405063    -0.13000
C1975       C  0.67495742  0.13374403  0.11797149    -0.11500
C1976       C  0.69345869  0.15593468  0.13325563    -0.13000
C1977       C  0.66374319  0.12981416  0.36663825    -0.11500
C1978       C  0.68085485  0.14700399  0.34555714    -0.13000
C1979       C  0.63013966  0.16137572  0.32818477    -0.11500
C1980       C  0.60757901  0.13877510  0.33397098    -0.13000
O1981       O  0.72820835  0.18021447  0.81965662    -0.73500
O1982       O  0.69550473  0.15675472  0.77273158    -0.52400
C1983       C  0.70382805  0.15962807  0.80701000     0.80200
O1984       O  0.75446231  0.29797461  0.84215678    -0.58100
O1985       O  0.79416531  0.32484537  0.80629217    -0.51100
C1986       C  0.78020355  0.32014312  0.83676534     0.72200
O1987       O  0.67470601  0.20433005  0.81820830    -0.72700
O1988       O  0.66202223  0.17498155  0.76602566    -0.53200
C1989       C  0.65794711  0.18028508  0.79978874     0.78200
O1990       O  0.81070396  0.25942151  0.83008923    -0.57800
O1991       O  0.82594099  0.30274214  0.80244184    -0.50900
C1992       C  0.82661808  0.28712053  0.82862705     0.74800
Zr1993     Zr  0.77123395  0.22055508  0.79228192     2.54700
O1994       O  0.78343268  0.20177958  0.84677632    -0.78400
O1995       O  0.79749293  0.19725088  0.76844773    -0.91800
Zr1996     Zr  0.71790610  0.25314301  0.80491806     2.64700
O1997       O  0.70500643  0.24531514  0.87080701    -0.96700
O1998       O  0.68659774  0.27421776  0.80322857    -0.78800
O1999       O  0.72744562  0.21768923  0.78621842    -0.82200
O2000       O  0.76563552  0.26097727  0.80580019    -2.16900
O2001       O  0.82292941  0.28367364  0.67057023    -0.65600
O2002       O  0.83246584  0.31541252  0.71965119    -0.50100
C2003       C  0.83817271  0.30888610  0.68745229     0.73200
O2004       O  0.68983059  0.23050055  0.65348011    -0.58500
O2005       O  0.67154904  0.18737924  0.68239882    -0.50400
C2006       C  0.67273191  0.20314063  0.65524605     0.75000
O2007       O  0.76250685  0.31499876  0.67405050    -0.69900
O2008       O  0.79616126  0.33406172  0.72096777    -0.48500
C2009       C  0.78763802  0.33353887  0.68729521     0.76400
O2010       O  0.73805305  0.19803575  0.64180020    -0.65200
O2011       O  0.70552922  0.16540402  0.68142713    -0.52400
C2012       C  0.71479054  0.17380045  0.64846733     0.74800
Zr2013     Zr  0.77737269  0.23542520  0.68337241     2.77500
O2014       O  0.79194843  0.23568480  0.61857922    -0.95900
O2015       O  0.80426516  0.20985656  0.68896382    -0.76800
Zr2016     Zr  0.72388786  0.26847001  0.69614711     2.70100
O2017       O  0.70981248  0.28653066  0.64257280    -0.78000
O2018       O  0.69250280  0.28502265  0.72283936    -0.97100
Zr2019     Zr  0.70579970  0.19597736  0.73152825     2.21500
Zr2020     Zr  0.78967654  0.29310995  0.75584307     2.11100
O2021       O  0.77147604  0.27543581  0.69414475    -2.45800
O2022       O  0.73234521  0.23062330  0.69035822    -0.77800
O2023       O  0.79801525  0.25363361  0.74434123    -0.70000
O2024       O  0.69709232  0.23520926  0.74374717    -2.30900
O2025       O  0.75283930  0.20068069  0.73114017    -2.27200
O2026       O  0.74241002  0.28780440  0.75719369    -0.71800
H2027       H  0.77284161  0.26794027  0.83077550     0.80200
H2028       H  0.67666856  0.22914439  0.74257673     0.81300
H2029       H  0.78182708  0.28668309  0.67307261     0.83600
H2030       H  0.75195409  0.18236506  0.72621982     0.81200
H2031       H  0.66683301  0.25761984  0.80646128     0.44200
H2032       H  0.70026497  0.30483458  0.71349023     0.43200
H2033       H  0.72031299  0.28429129  0.62105976     0.42800
H2034       H  0.79194763  0.25251455  0.60748640     0.40800
H2035       H  0.82405928  0.22505420  0.69655302     0.43900
H2036       H  0.78834392  0.17819361  0.78042853     0.38700
H2037       H  0.77549169  0.20735874  0.86839770     0.44800
H2038       H  0.72265477  0.24792481  0.88366769     0.41200
H2039       H  0.81265755  0.24121389  0.62009656     0.46200
H2040       H  0.81692710  0.20828055  0.78038844     0.44900
H2041       H  0.70341562  0.26229431  0.87898049     0.45000
H2042       H  0.67376397  0.27341997  0.70939561     0.45400
O2043       O  0.53589362  0.21272530  0.84016790    -0.73500
O2044       O  0.52537330  0.18540605  0.78659748    -0.52400
C2045       C  0.53115575  0.18944650  0.82159298     0.80200
O2046       O  0.95237660  0.26458453  0.84260887    -0.58100
O2047       O  0.98160876  0.30845880  0.81698511    -0.51100
C2048       C  0.96384807  0.29225474  0.84163402     0.72200
O2049       O  0.96007280  0.18853070  0.83758099    -0.72700
O2050       O  0.97141438  0.16539955  0.79247548    -0.53200
C2051       C  0.96486463  0.16844226  0.82615770     0.78200
O2052       O  0.54649171  0.30369566  0.86163564    -0.57800
O2053       O  0.53612942  0.33104034  0.82311356    -0.50900
C2054       C  0.54288655  0.32557243  0.85510798     0.74800
Zr2055     Zr  0.54234499  0.26150751  0.82335201     2.54700
O2056       O  0.55286482  0.25923007  0.88918875    -0.78400
O2057       O  0.59483133  0.28425995  0.81959123    -0.91800
Zr2058     Zr  0.95605595  0.22650926  0.80701030     2.64700
O2059       O  0.92272862  0.20574369  0.85906744    -0.96700
O2060       O  0.90706032  0.19959218  0.78102894    -0.78800
O2061       O  0.99807489  0.22504527  0.80429426    -0.82200
O2062       O  0.00111920  0.26760373  0.82173870    -2.16900
O2063       O  0.55986321  0.32317268  0.69146027    -0.65600
O2064       O  0.53992432  0.34069586  0.73358657    -0.50100
C2065       C  0.55157811  0.34118264  0.70197597     0.73200
O2066       O  0.96988143  0.20212517  0.66035745    -0.58500
O2067       O  0.97221567  0.17152572  0.70161650    -0.50400
C2068       C  0.97006654  0.17866437  0.66844547     0.75000
O2069       O  0.96712452  0.28692549  0.68463567    -0.69900
O2070       O  0.98644287  0.31888011  0.73423349    -0.48500
C2071       C  0.97538654  0.31187385  0.70132822     0.76400
O2072       O  0.54838145  0.23795908  0.67102644    -0.65200
O2073       O  0.52808424  0.19603640  0.70291087    -0.52400
C2074       C  0.53999195  0.21094641  0.67396385     0.74800
Zr2075     Zr  0.55344031  0.27674461  0.71399299     2.77500
O2076       O  0.58596986  0.29249105  0.66061058    -0.95900
O2077       O  0.60188939  0.29435636  0.73967410    -0.76800
Zr2078     Zr  0.96706385  0.24036912  0.69867308     2.70100
O2079       O  0.95875367  0.24498473  0.63270961    -0.78000
O2080       O  0.91440052  0.21189389  0.69930853    -0.97100
Zr2081     Zr  0.00090390  0.20396002  0.75067371     2.21500
Zr2082     Zr  0.00945220  0.29955013  0.77148449     2.11100
O2083       O  0.01187259  0.28179073  0.71055144    -2.45800
O2084       O  0.00807743  0.23755402  0.70827595    -0.77800
O2085       O  0.55233907  0.29582918  0.77477445    -0.70000
O2086       O  0.95737265  0.20650168  0.74715635    -2.30900
O2087       O  0.54787859  0.24455079  0.76296712    -2.27200
O2088       O  0.96244264  0.25885977  0.75838046    -0.71800
H2089       H  0.99929279  0.27402189  0.84641130     0.80200
H2090       H  0.94057531  0.18774189  0.74187241     0.81300
H2091       H  0.01254049  0.29270280  0.68922141     0.83600
H2092       H  0.56288601  0.23932022  0.76275372     0.81200
H2093       H  0.89999907  0.17934230  0.78813058     0.44200
H2094       H  0.90808828  0.22630933  0.70318234     0.43200
H2095       H  0.97835091  0.25491087  0.62176378     0.42800
H2096       H  0.57484396  0.29483292  0.64009931     0.40800
H2097       H  0.61107091  0.31566892  0.73938519     0.43900
H2098       H  0.59962894  0.27128020  0.83341970     0.38700
H2099       H  0.53376632  0.25053102  0.90145433     0.44800
H2100       H  0.93404228  0.21639328  0.88173182     0.41200
H2101       H  0.60140827  0.31242055  0.66722384     0.46200
H2102       H  0.60221944  0.30178949  0.83591341     0.44900
H2103       H  0.90827178  0.21208299  0.85594655     0.45000
H2104       H  0.90877937  0.20494993  0.67303089     0.45400
O2105       O  0.67283103  0.45655682  0.81605608    -0.73500
O2106       O  0.65852299  0.47551551  0.76965802    -0.52400
C2107       C  0.65504983  0.46345022  0.80117264     0.80200
O2108       O  0.81789800  0.04188053  0.83624135    -0.58100
O2109       O  0.83427912  0.02342054  0.79039424    -0.51100
C2110       C  0.83594604  0.03435620  0.82347659     0.72200
O2111       O  0.73365659  0.03831959  0.85302326    -0.72700
O2112       O  0.69330225  0.02322275  0.81645475    -0.53200
C2113       C  0.70747050  0.03291823  0.84745972     0.78200
O2114       O  0.75057939  0.44674229  0.83483457    -0.57800
O2115       O  0.79186819  0.46252540  0.80113329    -0.50900
C2116       C  0.77687646  0.45207782  0.83053451     0.74800
Zr2117     Zr  0.71623937  0.45435146  0.79631182     2.54700
O2118       O  0.69271246  0.42538007  0.85079260    -0.78400
O2119       O  0.69038568  0.40558307  0.76934160    -0.91800
Zr2120     Zr  0.77282131  0.04027220  0.81402554     2.64700
O2121       O  0.78408684  0.05748315  0.87905566    -0.96700
O2122       O  0.79809895  0.09218134  0.80480143    -0.78800
O2123       O  0.72190203  0.49944202  0.79407891    -0.82200
O2124       O  0.76159259  0.49579630  0.81174731    -2.16900
O2125       O  0.77597448  0.45954230  0.66749201    -0.65600
O2126       O  0.80995789  0.47667502  0.71450456    -0.50100
C2127       C  0.80113373  0.46619519  0.68115476     0.73200
O2128       O  0.72226668  0.04835515  0.68454738    -0.58500
O2129       O  0.69196893  0.03601543  0.73394741    -0.50400
C2130       C  0.69861506  0.04390200  0.70031508     0.75000
O2131       O  0.81060464  0.05704637  0.67001082    -0.69900
O2132       O  0.83269223  0.03731350  0.70348021    -0.48500
C2133       C  0.83047903  0.05028119  0.67508927     0.76400
O2134       O  0.69436186  0.46437054  0.65115784    -0.65200
O2135       O  0.67258026  0.48427599  0.68604689    -0.52400
C2136       C  0.67504044  0.47190732  0.65618952     0.74800
Zr2137     Zr  0.73329916  0.46361932  0.68773180     2.77500
O2138       O  0.73238101  0.45508733  0.62024892    -0.95900
O2139       O  0.70513468  0.41119138  0.69030041    -0.76800
Zr2140     Zr  0.76780983  0.05070950  0.70519605     2.70100
O2141       O  0.77339818  0.07414473  0.64553974    -0.78000
O2142       O  0.79150412  0.10126577  0.72531589    -0.97100
Zr2143     Zr  0.70359036  0.50593114  0.74055815     2.21500
Zr2144     Zr  0.79224720  0.49808485  0.76133460     2.11100
O2145       O  0.77827455  0.50557910  0.70103788    -2.45800
O2146       O  0.73458890  0.50863523  0.69129573    -0.77800
O2147       O  0.74734684  0.45505539  0.74761704    -0.70000
O2148       O  0.74623543  0.04667291  0.76511538    -2.30900
O2149       O  0.70043743  0.45967347  0.73601892    -2.27200
O2150       O  0.79620145  0.04757492  0.75505753    -0.71800
H2151       H  0.76782659  0.49446107  0.83654574     0.80200
H2152       H  0.74304474  0.06271113  0.77063746     0.81300
H2153       H  0.79082782  0.50730000  0.68084181     0.83600
H2154       H  0.68093291  0.44452141  0.73035984     0.81200
H2155       H  0.78674115  0.09908138  0.81917862     0.44200
H2156       H  0.80814557  0.11111182  0.70826447     0.43200
H2157       H  0.76330161  0.05796794  0.62709905     0.42800
H2158       H  0.75088883  0.47112809  0.61113251     0.40800
H2159       H  0.68604221  0.40614358  0.67938769     0.43900
H2160       H  0.67021997  0.39763996  0.77802778     0.38700
H2161       H  0.70150713  0.43881609  0.87256878     0.44800
H2162       H  0.78543167  0.04214608  0.89244227     0.41200
H2163       H  0.73420517  0.43761007  0.61706852     0.46200
H2164       H  0.69791001  0.39484280  0.78331878     0.44900
H2165       H  0.80419227  0.07398750  0.87886520     0.45000
H2166       H  0.77793732  0.10785054  0.71760379     0.45400
C2167       C  0.53558398  0.07252589  0.85395385     0.04900
C2168       C  0.56551119  0.08676012  0.84338117    -0.11200
C2169       C  0.57991262  0.11582801  0.83104030     0.02400
C2170       C  0.56482488  0.13045838  0.82798341    -0.09800
C2171       C  0.53703772  0.11919201  0.84110996     0.04900
C2172       C  0.52188425  0.08998456  0.85319836    -0.09200
H2173       H  0.57819763  0.07640261  0.84849092     0.10500
H2174       H  0.57619065  0.15267997  0.81861476     0.08000
H2175       H  0.50076669  0.08186876  0.86557688     0.07900
C2176       C  0.55730479  0.12333499  0.57356100     0.04900
C2177       C  0.54334407  0.13889496  0.58405081    -0.11200
C2178       C  0.55976270  0.16719588  0.59882133     0.02400
C2179       C  0.58970155  0.18025072  0.60105116    -0.09800
C2180       C  0.60345869  0.16486469  0.59127678     0.04900
C2181       C  0.58747302  0.13653141  0.57733059    -0.09200
H2182       H  0.52016898  0.12911435  0.58128490     0.10500
H2183       H  0.60218811  0.20166448  0.61395508     0.08000
H2184       H  0.59827849  0.12456594  0.57039506     0.07900
C2185       C  0.55380411  0.42565345  0.57338505     0.04900
C2186       C  0.58476700  0.44337574  0.57564060    -0.11200
C2187       C  0.60152257  0.43626723  0.59866303     0.02400
C2188       C  0.58815582  0.41134731  0.61882685    -0.09800
C2189       C  0.55825812  0.39466729  0.61985461     0.04900
C2190       C  0.54055010  0.40134319  0.59702697    -0.09200
H2191       H  0.59603730  0.46345226  0.56080005     0.10500
H2192       H  0.60135793  0.40618727  0.63685830     0.08000
H2193       H  0.51718115  0.38843776  0.59837363     0.07900
C2194       C  0.93934325  0.05695393  0.60347443     0.04900
C2195       C  0.95870732  0.08701494  0.60914602    -0.11200
C2196       C  0.94774501  0.10604871  0.61518901     0.02400
C2197       C  0.91815508  0.09504018  0.61736562    -0.09800
C2198       C  0.89914634  0.06563547  0.61539401     0.04900
C2199       C  0.90933278  0.04637031  0.60761965    -0.09200
H2200       H  0.98171085  0.09528723  0.60780610     0.10500
H2201       H  0.90982604  0.10954881  0.62362558     0.08000
H2202       H  0.89411765  0.02340470  0.60476074     0.07900
C2203       C  0.95020384  0.06496822  0.92414083     0.04900
C2204       C  0.96499292  0.09410333  0.91359023    -0.11200
C2205       C  0.95033218  0.10475370  0.89221329     0.02400
C2206       C  0.92166173  0.08722177  0.88140607    -0.09800
C2207       C  0.90709016  0.05815030  0.88852374     0.04900
C2208       C  0.92102735  0.04673406  0.91045181    -0.09200
H2209       H  0.98745976  0.10818380  0.92167797     0.10500
H2210       H  0.91104169  0.09606990  0.86451864     0.08000
H2211       H  0.90948363  0.02388986  0.91630029     0.07900
C2212       C  0.62453520  0.06859605  0.93084315     0.04900
C2213       C  0.63356798  0.09291552  0.90777600    -0.11200
C2214       C  0.65816166  0.10188979  0.88480273     0.02400
C2215       C  0.67357710  0.08732555  0.88490249    -0.09800
C2216       C  0.66458522  0.06279683  0.90544929     0.04900
C2217       C  0.64042058  0.05345600  0.92876203    -0.09200
H2218       H  0.62132942  0.10410095  0.90689588     0.10500
H2219       H  0.69206230  0.09419369  0.86652843     0.08000
H2220       H  0.63347300  0.03376058  0.94394026     0.07900
C2221       C  0.54529184  0.43913932  0.90030543     0.04900
C2222       C  0.53693953  0.41011032  0.90954503    -0.11200
C2223       C  0.55209103  0.39675065  0.89426511     0.02400
C2224       C  0.57544533  0.41245069  0.87124193    -0.09800
C2225       C  0.58420837  0.44073736  0.86265978     0.04900
C2226       C  0.56930838  0.45430272  0.87681924    -0.09200
H2227       H  0.51955145  0.39850126  0.92888557     0.10500
H2228       H  0.58715046  0.40234136  0.85948311     0.08000
H2229       H  0.57694348  0.47675400  0.87074494     0.07900
C2230       C  0.60744053  0.05748490  0.59858626     0.04900
C2231       C  0.61770396  0.04331658  0.62172613    -0.11200
C2232       C  0.64604499  0.05853389  0.63642339     0.02400
C2233       C  0.66401147  0.08734989  0.62876634    -0.09800
C2234       C  0.65487698  0.10216315  0.60642580     0.04900
C2235       C  0.62652340  0.08719979  0.59051194    -0.09200
H2236       H  0.60400050  0.02062374  0.62761462     0.10500
H2237       H  0.68569945  0.09870424  0.64107783     0.08000
H2238       H  0.61957196  0.09821014  0.57182784     0.07900
O2239       O  0.53042693  0.07245193  0.58111937    -0.84700
O2240       O  0.51067580  0.02144659  0.88171566    -0.84900
O2241       O  0.57972426  0.06665163  0.95388103    -0.86500
O2242       O  0.49241239  0.06377549  0.95061818    -0.85300
O2243       O  0.94611617  0.03031565  0.96631578    -0.84900
O2244       O  0.59135591  0.03254319  0.97005591    -0.86300
O2245       O  0.53586210  0.06455791  0.91525441    -0.84700
O2246       O  0.54028510  0.09151767  0.52180985    -0.84300
Zr2247     Zr  0.52843733  0.04991064  0.97627500     2.84300
O2248       O  0.98380632  0.01298266  0.95299997    -1.06300
O2249       O  0.53598557  0.03517837  0.52494442    -1.07000
C2250       C  0.54121042  0.09372105  0.55795089     1.08400
C2251       C  0.52629558  0.05038587  0.88466612     1.08300
C2252       C  0.59706044  0.05585955  0.95354206     1.11300
C2253       C  0.96420754  0.05275831  0.94879912     1.09100
H2254       H  0.54689099  0.01767759  0.93006660     0.34700
O2255       O  0.53384705  0.01204665  0.95093229    -1.27200
H2256       H  0.98644697  0.05282401  0.53268766     0.34300
O2257       O  0.48820497  0.03629964  0.52532657    -1.28900
O2258       O  0.95432162  0.42445195  0.92139951    -0.84700
O2259       O  0.98839133  0.47178627  0.62253955    -0.86200
O2260       O  0.54557148  0.46691319  0.95226267    -0.84800
O2261       O  0.90705282  0.47287522  0.95378602    -0.84800
O2262       O  0.93653134  0.02562316  0.55447864    -0.84500
O2263       O  0.57835106  0.02840474  0.54769805    -0.84300
O2264       O  0.50925250  0.42547213  0.55083384    -0.84700
O2265       O  0.92524435  0.42944110  0.55643568    -0.84200
O2266       O  0.55422357  0.45845142  0.53065805    -0.85200
O2267       O  0.91208353  0.46235944  0.53936362    -0.84400
O2268       O  0.51260365  0.45849217  0.90505620    -0.84800
O2269       O  0.55543653  0.03784122  0.59594997    -0.84500
O2270       O  0.97142956  0.03703384  0.60004915    -0.84200
O2271       O  0.92786187  0.45913247  0.90729353    -0.84600
O2272       O  0.94689203  0.40546652  0.98066646    -0.84900
O2273       O  0.96801807  0.42829447  0.58938647    -0.86200
Zr2274     Zr  0.98025555  0.47763451  0.92633615     2.83100
Zr2275     Zr  0.50374865  0.01899529  0.57655849     2.83500
Zr2276     Zr  0.54194488  0.99777730  0.50049756     2.84100
Zr2277     Zr  0.94374862  0.99937302  0.50255732     2.83400
Zr2278     Zr  0.97422189  0.44180863  0.52770871     2.84200
O2279       O  0.96777364  0.47942179  0.55119109    -1.06800
O2280       O  0.49758388  0.46138357  0.97668702    -1.06300
C2281       C  0.94498055  0.40326593  0.94452819     1.08400
C2282       C  0.97433755  0.44287285  0.61990954     1.11000
C2283       C  0.53331673  0.45565050  0.92036999     1.08600
C2284       C  0.90558836  0.45917553  0.92283070     1.08900
C2285       C  0.94947049  0.03807048  0.58571798     1.08500
C2286       C  0.57844060  0.04023145  0.57967930     1.08000
C2287       C  0.53741214  0.43622536  0.54960628     1.08500
C2288       C  0.90823824  0.44071504  0.55838921     1.08000
H2289       H  0.52614177  0.47445724  0.57235114     0.34700
O2290       O  0.51829397  0.47978003  0.55166409    -1.27900
H2291       H  0.93054896  0.44490330  0.97259589     0.34700
O2292       O  0.94916458  0.46123480  0.97910792    -1.29300
C2293       C  0.88339762  0.43057699  0.58562273     0.04900
C2294       C  0.87365459  0.45023030  0.59774588    -0.11200
C2295       C  0.85072416  0.44161589  0.62353507     0.03700
C2296       C  0.83777728  0.41412741  0.63684686    -0.09800
C2297       C  0.84602700  0.39452368  0.62514128     0.04900
C2298       C  0.86901117  0.40230418  0.59986342    -0.09200
H2299       H  0.88394847  0.47206295  0.58756522     0.10500
H2300       H  0.82014314  0.40754012  0.65666136     0.08000
H2301       H  0.87528605  0.38667263  0.59119064     0.07900
C2302       C  0.87527510  0.44125432  0.90653769     0.04900
C2303       C  0.85776239  0.45417188  0.90251892    -0.11200
C2304       C  0.82777901  0.43693178  0.89524143     0.02400
C2305       C  0.81484247  0.40718616  0.89355371    -0.09800
C2306       C  0.83117293  0.39365951  0.89438323     0.04900
C2307       C  0.86170959  0.41060588  0.90085092    -0.09200
H2308       H  0.86745993  0.47745559  0.90473001     0.10500
H2309       H  0.79171752  0.39437804  0.88749072     0.08000
H2310       H  0.87457609  0.40020341  0.90219268     0.07900
C2311       C  0.96249925  0.42133400  0.65121407     0.04900
C2312       C  0.97749190  0.40593773  0.65942608    -0.11200
C2313       C  0.96233481  0.37698382  0.67213778     0.02400
C2314       C  0.93291568  0.36374163  0.67804556    -0.09800
C2315       C  0.91692380  0.37623116  0.66717687     0.04900
C2316       C  0.93149239  0.40530365  0.65481789    -0.09200
H2317       H  0.00009819  0.41525618  0.65211540     0.10500
H2318       H  0.92159522  0.34157522  0.68758645     0.08000
H2319       H  0.91872085  0.41427774  0.64413331     0.07900
C2320       C  0.93141449  0.37376946  0.92867898     0.04900
C2321       C  0.90190913  0.35881687  0.91832135    -0.11200
C2322       C  0.88945423  0.33046438  0.90383992     0.02400
C2323       C  0.90577235  0.31692199  0.90089358    -0.09800
C2324       C  0.93516938  0.33204998  0.90885185     0.04900
C2325       C  0.94817046  0.36037422  0.92337504    -0.09200
H2326       H  0.88909456  0.36929360  0.92059903     0.10500
H2327       H  0.89620924  0.29544274  0.88797338     0.08000
H2328       H  0.97114692  0.37219845  0.92924148     0.07900
C2329       C  0.82159929  0.46324138  0.65677979    -0.11500
C2330       C  0.83810176  0.45852160  0.63816475    -0.13000
C2331       C  0.87040613  0.05677009  0.62767685    -0.11500
C2332       C  0.85077024  0.05505093  0.64617363    -0.13000
C2333       C  0.85880110  0.03711160  0.84875803    -0.11500
C2334       C  0.87904809  0.04194952  0.86947670    -0.13000
C2335       C  0.79233566  0.44908708  0.86134066    -0.11500
C2336       C  0.80980754  0.44776146  0.88144727    -0.13000
C2337       C  0.67677313  0.04481350  0.67824530    -0.11500
C2338       C  0.65884365  0.04637045  0.65960653    -0.13000
C2339       C  0.65369197  0.46508622  0.62688327    -0.11500
C2340       C  0.63174858  0.45542763  0.60803289    -0.13000
C2341       C  0.63031505  0.45912838  0.82195535    -0.11500
C2342       C  0.60942367  0.45460828  0.83990699    -0.13000
C2343       C  0.67878222  0.04637282  0.89645988    -0.11500
C2344       C  0.69269905  0.03861725  0.87758766    -0.13000
C2345       C  0.55022408  0.35947432  0.67384295    -0.11500
C2346       C  0.54847586  0.37315656  0.64831935    -0.13000
C2347       C  0.97407695  0.33521203  0.68270524    -0.11500
C2348       C  0.97359131  0.35718035  0.67523724    -0.13000
C2349       C  0.95132077  0.31981918  0.89308896    -0.11500
C2350       C  0.95775435  0.30663500  0.87126674    -0.13000
C2351       C  0.54432263  0.34520593  0.88490285    -0.11500
C2352       C  0.54449804  0.36667283  0.89748983    -0.13000
C2353       C  0.96888716  0.15875907  0.63963684    -0.11500
C2354       C  0.96469052  0.13654878  0.62423642    -0.13000
C2355       C  0.54722689  0.18166279  0.61900468    -0.11500
C2356       C  0.54324230  0.19580197  0.64244900    -0.13000
C2357       C  0.52971960  0.16444409  0.83977258    -0.11500
C2358       C  0.52812726  0.14103824  0.84464629    -0.13000
C2359       C  0.96371358  0.13230586  0.87556957    -0.11500
C2360       C  0.96521785  0.14971365  0.85367238    -0.13000
C2361       C  0.79663328  0.34137556  0.86630745    -0.11500
C2362       C  0.81486255  0.36321085  0.88286458    -0.13000
C2363       C  0.84514313  0.30233563  0.85972501    -0.11500
C2364       C  0.86266418  0.31654671  0.88359694    -0.13000
C2365       C  0.88581626  0.35560188  0.66528601    -0.11500
C2366       C  0.86322223  0.33297510  0.67024859    -0.13000
C2367       C  0.80933777  0.35095059  0.66108627    -0.11500
C2368       C  0.82853057  0.36685121  0.64083947    -0.13000
C2369       C  0.63251479  0.17664326  0.60428157    -0.11500
C2370       C  0.65301867  0.18897838  0.62493242    -0.13000
C2371       C  0.67557846  0.13297960  0.60494548    -0.11500
C2372       C  0.69604967  0.15479304  0.61845256    -0.13000
C2373       C  0.66842221  0.12447058  0.85792372    -0.11500
C2374       C  0.68365761  0.14023688  0.83375664    -0.13000
C2375       C  0.63335667  0.15618061  0.81743354    -0.11500
C2376       C  0.61090035  0.13445040  0.82552128    -0.13000
O2377       O  0.72820246  0.68021640  0.31966419    -0.73500
O2378       O  0.69550012  0.65675929  0.27273692    -0.52400
C2379       C  0.70382245  0.65963087  0.30701551     0.80200
O2380       O  0.75446515  0.79797853  0.34216439    -0.58100
O2381       O  0.79416712  0.82484905  0.30629822    -0.51100
C2382       C  0.78020660  0.82014666  0.33677244     0.72200
O2383       O  0.67470460  0.70433671  0.31821426    -0.72700
O2384       O  0.66201788  0.67499098  0.26602911    -0.53200
C2385       C  0.65794349  0.68029323  0.29979309     0.78200
O2386       O  0.81070522  0.75942097  0.33009558    -0.57800
O2387       O  0.82593779  0.80274420  0.30245767    -0.50900
C2388       C  0.82661850  0.78712056  0.32863723     0.74800
Zr2389     Zr  0.77122980  0.72055515  0.29229068     2.54700
O2390       O  0.78342714  0.70177999  0.34678677    -0.78400
O2391       O  0.79747658  0.69723930  0.26845214    -0.91800
Zr2392     Zr  0.71790638  0.75314886  0.30492421     2.64700
O2393       O  0.70499971  0.74532273  0.37081127    -0.96700
O2394       O  0.68659644  0.77422185  0.30323486    -0.78800
O2395       O  0.72744257  0.71769242  0.28622681    -0.82200
O2396       O  0.76563480  0.76097920  0.30580971    -2.16900
O2397       O  0.82293281  0.78366974  0.17058262    -0.65600
O2398       O  0.83247064  0.81540808  0.21966470    -0.50100
C2399       C  0.83817784  0.80888126  0.18746613     0.73200
O2400       O  0.68983216  0.73051006  0.15348480    -0.58500
O2401       O  0.67155151  0.68738720  0.18239956    -0.50400
C2402       C  0.67273395  0.70314972  0.15524843     0.75000
O2403       O  0.76251830  0.81500556  0.17405943    -0.69900
O2404       O  0.79616939  0.83406567  0.22098055    -0.48500
C2405       C  0.78764905  0.83354406  0.18730705     0.76400
O2406       O  0.73805116  0.69803023  0.14181102    -0.65200
O2407       O  0.70551768  0.66540449  0.18143573    -0.52400
C2408       C  0.71478489  0.67379764  0.14847706     0.74800
Zr2409     Zr  0.77737096  0.73542501  0.18337976     2.77500
O2410       O  0.79192836  0.73569320  0.11857571    -0.95900
O2411       O  0.80426983  0.70986139  0.18895218    -0.76800
Zr2412     Zr  0.72389364  0.76847802  0.19615176     2.70100
O2413       O  0.70982330  0.78653715  0.14257107    -0.78000
O2414       O  0.69252045  0.78504466  0.22284549    -0.97100
Zr2415     Zr  0.70579723  0.69598307  0.23153505     2.21500
Zr2416     Zr  0.78967828  0.79311104  0.25585239     2.11100
O2417       O  0.77148015  0.77543925  0.19415208    -2.45800
O2418       O  0.73234617  0.73062826  0.19036625    -0.77800
O2419       O  0.79801315  0.75363222  0.24434994    -0.70000
O2420       O  0.69709446  0.73521820  0.24375162    -2.30900
O2421       O  0.75283499  0.70068086  0.23114765    -2.27200
O2422       O  0.74241347  0.78780977  0.25720003    -0.71800
H2423       H  0.77284138  0.76794116  0.33078423     0.80200
H2424       H  0.67667040  0.72915525  0.24258016     0.81300
H2425       H  0.78183336  0.78668605  0.17308180     0.83600
H2426       H  0.75194785  0.68236676  0.22622734     0.81200
H2427       H  0.66684739  0.75764567  0.30665707     0.44200
H2428       H  0.70027985  0.80485208  0.21348234     0.43200
H2429       H  0.72033613  0.78430928  0.12106418     0.42800
H2430       H  0.79192502  0.75252531  0.10749396     0.40800
H2431       H  0.82404492  0.72504740  0.19663316     0.43900
H2432       H  0.78834790  0.67819637  0.28046753     0.38700
H2433       H  0.77549297  0.70736653  0.36840848     0.44800
H2434       H  0.72265806  0.74796777  0.38368341     0.41200
H2435       H  0.81263739  0.74122120  0.12008011     0.46200
H2436       H  0.81692351  0.70828771  0.28035581     0.44900
H2437       H  0.70337326  0.76228455  0.37896845     0.45000
H2438       H  0.67377655  0.77343688  0.20941407     0.45400
O2439       O  0.53588325  0.71272548  0.34017538    -0.73500
O2440       O  0.52537315  0.68541193  0.28660170    -0.52400
C2441       C  0.53114841  0.68944861  0.32159903     0.80200
O2442       O  0.95238228  0.76458464  0.34260963    -0.58100
O2443       O  0.98161251  0.80845764  0.31698182    -0.51100
C2444       C  0.96385474  0.79225483  0.34163415     0.72200
O2445       O  0.96007812  0.68853805  0.33759160    -0.72700
O2446       O  0.97142248  0.66540411  0.29249320    -0.53200
C2447       C  0.96487239  0.66845000  0.32617429     0.78200
O2448       O  0.54648535  0.80369343  0.36164459    -0.57800
O2449       O  0.53613130  0.83104174  0.32311799    -0.50900
C2450       C  0.54288314  0.82557152  0.35511467     0.74800
Zr2451     Zr  0.54234110  0.76150881  0.32335788     2.54700
O2452       O  0.55285820  0.75922008  0.38919280    -0.78400
O2453       O  0.59482791  0.78426331  0.31960297    -0.91800
Zr2454     Zr  0.95605731  0.72650911  0.30700681     2.64700
O2455       O  0.92271340  0.70574029  0.35904709    -0.96700
O2456       O  0.90706282  0.69958953  0.28102136    -0.78800
O2457       O  0.99807655  0.72504488  0.30429405    -0.82200
O2458       O  0.00112227  0.76760237  0.32173285    -2.16900
O2459       O  0.55986378  0.82317518  0.19146537    -0.65600
O2460       O  0.53991919  0.84069736  0.23358466    -0.50100
C2461       C  0.55157750  0.84118489  0.20197730     0.73200
O2462       O  0.96988173  0.70211989  0.16035914    -0.58500
O2463       O  0.97221024  0.67152092  0.20162398    -0.50400
C2464       C  0.97006581  0.67865928  0.16845108     0.75000
O2465       O  0.96712531  0.78692198  0.18462926    -0.69900
O2466       O  0.98644621  0.81887788  0.23422570    -0.48500
C2467       C  0.97538994  0.81187154  0.20132054     0.76400
O2468       O  0.54838226  0.73796383  0.17102839    -0.65200
O2469       O  0.52808521  0.69604036  0.20291046    -0.52400
C2470       C  0.53999302  0.71095104  0.17396388     0.74800
Zr2471     Zr  0.55344060  0.77674739  0.21399913     2.77500
O2472       O  0.58598328  0.79250406  0.16063034    -0.95900
O2473       O  0.60188773  0.79435178  0.23968247    -0.76800
Zr2474     Zr  0.96706396  0.74036523  0.19867071     2.70100
O2475       O  0.95875517  0.74497163  0.13270382    -0.78000
O2476       O  0.91440174  0.71188570  0.19933048    -0.97100
Zr2477     Zr  0.00090425  0.70395725  0.25067598     2.21500
Zr2478     Zr  0.00945419  0.79954823  0.27147884     2.11100
O2479       O  0.01187285  0.78178747  0.21054594    -2.45800
O2480       O  0.00807719  0.73755095  0.20827833    -0.77800
O2481       O  0.55233705  0.79583129  0.27478036    -0.70000
O2482       O  0.95737335  0.70649849  0.24715505    -2.30900
O2483       O  0.54787796  0.74455304  0.26297325    -2.27200
O2484       O  0.96244392  0.75885906  0.25837598    -0.71800
H2485       H  0.99929721  0.77402070  0.34640636     0.80200
H2486       H  0.94057681  0.68773902  0.24187233     0.81300
H2487       H  0.01254072  0.79269896  0.18921666     0.83600
H2488       H  0.56288376  0.73932309  0.26276100     0.81200
H2489       H  0.90000390  0.67933873  0.28811727     0.44200
H2490       H  0.90808194  0.72631908  0.20292805     0.43200
H2491       H  0.97835296  0.75489792  0.12175952     0.42800
H2492       H  0.57484435  0.79480217  0.14009811     0.40800
H2493       H  0.61108420  0.81566482  0.23935384     0.43900
H2494       H  0.59962495  0.77128110  0.33342471     0.38700
H2495       H  0.53375017  0.75044913  0.40144114     0.44800
H2496       H  0.93402444  0.71637929  0.38171841     0.41200
H2497       H  0.60139424  0.81245054  0.16722361     0.46200
H2498       H  0.60221425  0.80178952  0.33593283     0.44900
H2499       H  0.90826563  0.71209102  0.35592635     0.45000
H2500       H  0.90878694  0.70476069  0.17311295     0.45400
O2501       O  0.67283485  0.95655949  0.31606139    -0.73500
O2502       O  0.65852565  0.97551797  0.26966418    -0.52400
C2503       C  0.65505254  0.96345154  0.30117811     0.80200
O2504       O  0.81789876  0.54188097  0.33624184    -0.58100
O2505       O  0.83427714  0.52341731  0.29039585    -0.51100
C2506       C  0.83594613  0.53435546  0.32347695     0.72200
O2507       O  0.73365418  0.53831854  0.35302386    -0.72700
O2508       O  0.69330096  0.52322272  0.31645328    -0.53200
C2509       C  0.70746804  0.53291708  0.34745911     0.78200
O2510       O  0.75058490  0.94674610  0.33483255    -0.57800
O2511       O  0.79187838  0.96253772  0.30113822    -0.50900
C2512       C  0.77688314  0.95208405  0.33053534     0.74800
Zr2513     Zr  0.71624380  0.95435688  0.29631287     2.54700
O2514       O  0.69272290  0.92538029  0.35079190    -0.78400
O2515       O  0.69038883  0.90559263  0.26932985    -0.91800
Zr2516     Zr  0.77282063  0.54027242  0.31402727     2.64700
O2517       O  0.78409128  0.55748956  0.37905474    -0.96700
O2518       O  0.79809614  0.59218122  0.30479990    -0.78800
O2519       O  0.72190677  0.99944795  0.29408064    -0.82200
O2520       O  0.76159620  0.99580236  0.31174671    -2.16900
O2521       O  0.77597484  0.95954625  0.16749279    -0.65600
O2522       O  0.80995817  0.97667724  0.21450544    -0.50100
C2523       C  0.80113347  0.96619757  0.18115565     0.73200
O2524       O  0.72226782  0.54835125  0.18454204    -0.58500
O2525       O  0.69196863  0.53601405  0.23394001    -0.50400
C2526       C  0.69861534  0.54389786  0.20030679     0.75000
O2527       O  0.81060774  0.55704861  0.17001725    -0.69900
O2528       O  0.83269507  0.53731814  0.20349168    -0.48500
C2529       C  0.83048252  0.55028462  0.17509909     0.76400
O2530       O  0.69436785  0.96438227  0.15115688    -0.65200
O2531       O  0.67258263  0.98428208  0.18604972    -0.52400
C2532       C  0.67504553  0.97191761  0.15618999     0.74800
Zr2533     Zr  0.73330000  0.96362301  0.18773277     2.77500
O2534       O  0.73237812  0.95508563  0.12025061    -0.95900
O2535       O  0.70513507  0.91119467  0.19029178    -0.76800
Zr2536     Zr  0.76781124  0.55071078  0.20519770     2.70100
O2537       O  0.77340274  0.57414620  0.14554076    -0.78000
O2538       O  0.79150231  0.60126791  0.22531296    -0.97100
Zr2539     Zr  0.70359198  0.00593521  0.24056148     2.21500
Zr2540     Zr  0.79225027  0.99809066  0.26133421     2.11100
O2541       O  0.77827545  0.00558292  0.20103741    -2.45800
O2542       O  0.73458879  0.00863808  0.19129756    -0.77800
O2543       O  0.74735020  0.95506056  0.24761744    -0.70000
O2544       O  0.74623555  0.54667449  0.26511652    -2.30900
O2545       O  0.70043920  0.95967742  0.23602117    -2.27200
O2546       O  0.79620100  0.54757429  0.25505978    -0.71800
H2547       H  0.76782851  0.99446508  0.33654546     0.80200
H2548       H  0.74304481  0.56271130  0.27063785     0.81300
H2549       H  0.79082853  0.00730345  0.18084088     0.83600
H2550       H  0.68093472  0.94452530  0.23036282     0.81200
H2551       H  0.78674020  0.59908164  0.31918065     0.44200
H2552       H  0.80815368  0.61111123  0.20827451     0.43200
H2553       H  0.76327903  0.55796991  0.12710610     0.42800
H2554       H  0.75088385  0.97112880  0.11113104     0.40800
H2555       H  0.68605564  0.90614547  0.17933269     0.43900
H2556       H  0.67023787  0.89762512  0.27808602     0.38700
H2557       H  0.70150853  0.93881851  0.37256817     0.44800
H2558       H  0.78544249  0.54215619  0.39244227     0.41200
H2559       H  0.73420685  0.93761137  0.11707145     0.46200
H2560       H  0.69796108  0.89486653  0.28324369     0.44900
H2561       H  0.80419465  0.57399698  0.37885949     0.45000
H2562       H  0.77794274  0.60785554  0.21758015     0.45400
C2563       C  0.53557808  0.57253015  0.35395521     0.04900
C2564       C  0.56550581  0.58676701  0.34338354    -0.11200
C2565       C  0.57990609  0.61583560  0.33104446     0.02400
C2566       C  0.56481664  0.63046430  0.32798939    -0.09800
C2567       C  0.53702841  0.61919473  0.34111354     0.04900
C2568       C  0.52187603  0.58998651  0.35319891    -0.09200
H2569       H  0.57819341  0.57641065  0.34849246     0.10500
H2570       H  0.57618143  0.65268656  0.31862315     0.08000
H2571       H  0.50075732  0.58186819  0.36557479     0.07900
C2572       C  0.55730463  0.62333660  0.07356860     0.04900
C2573       C  0.54334407  0.63889831  0.08405175    -0.11200
C2574       C  0.55976276  0.66720128  0.09881665     0.02400
C2575       C  0.58970183  0.68025706  0.10104416    -0.09800
C2576       C  0.60345892  0.66486925  0.09127884     0.04900
C2577       C  0.58747287  0.63653334  0.07734092    -0.09200
H2578       H  0.52016898  0.62911738  0.08128567     0.10500
H2579       H  0.60218858  0.70167296  0.11394209     0.08000
H2580       H  0.59827827  0.62456675  0.07041217     0.07900
C2581       C  0.55380952  0.92565798  0.07338678     0.04900
C2582       C  0.58477192  0.94338319  0.07564439    -0.11200
C2583       C  0.60152861  0.93627688  0.09866723     0.02400
C2584       C  0.58816355  0.91135687  0.11883131    -0.09800
C2585       C  0.55826595  0.89467280  0.11985492     0.04900
C2586       C  0.54055691  0.90134611  0.09702571    -0.09200
H2587       H  0.59604112  0.96346026  0.06080480     0.10500
H2588       H  0.60136640  0.90619898  0.13686443     0.08000
H2589       H  0.51718805  0.88843763  0.09836938     0.07900
C2590       C  0.93934239  0.55694881  0.10347605     0.04900
C2591       C  0.95870911  0.58700850  0.10915409    -0.11200
C2592       C  0.94774982  0.60604370  0.11520579     0.02400
C2593       C  0.91816071  0.59503759  0.11738831    -0.09800
C2594       C  0.89914937  0.56563387  0.11540766     0.04900
C2595       C  0.90933236  0.54636738  0.10762229    -0.09200
H2596       H  0.98171224  0.59527891  0.10781116     0.10500
H2597       H  0.90983412  0.60954726  0.12365569     0.08000
H2598       H  0.89411517  0.52340268  0.10475668     0.07900
C2599       C  0.95020839  0.56496755  0.42413647     0.04900
C2600       C  0.96499670  0.59410480  0.41359557    -0.11200
C2601       C  0.95033765  0.60475702  0.39221895     0.02400
C2602       C  0.92166950  0.58722419  0.38140128    -0.09800
C2603       C  0.90709767  0.55815167  0.38851378     0.04900
C2604       C  0.92103371  0.54673377  0.41044118    -0.09200
H2605       H  0.98746171  0.60818579  0.42169122     0.10500
H2606       H  0.91105081  0.59607367  0.36451387     0.08000
H2607       H  0.90949021  0.52388893  0.41628578     0.07900
C2608       C  0.62452900  0.56859264  0.43084065     0.04900
C2609       C  0.63356223  0.59291249  0.40777458    -0.11200
C2610       C  0.65815403  0.60188495  0.38479876     0.02400
C2611       C  0.67356724  0.58731836  0.38489450    -0.09800
C2612       C  0.66457606  0.56279033  0.40544266     0.04900
C2613       C  0.64041272  0.55345092  0.42875747    -0.09200
H2614       H  0.62132556  0.60409997  0.40689764     0.10500
H2615       H  0.69205132  0.59418556  0.36651869     0.08000
H2616       H  0.63346522  0.53375581  0.44393641     0.07900
C2617       C  0.54528695  0.93913725  0.40029882     0.04900
C2618       C  0.53693261  0.91010829  0.40954017    -0.11200
C2619       C  0.55208354  0.89674730  0.39426339     0.02400
C2620       C  0.57543825  0.91244526  0.37123967    -0.09800
C2621       C  0.58420327  0.94073203  0.36265565     0.04900
C2622       C  0.56930408  0.95429898  0.37681280    -0.09200
H2623       H  0.51954366  0.89850042  0.42888028     0.10500
H2624       H  0.58714293  0.90233465  0.35948340     0.08000
H2625       H  0.57694073  0.97675044  0.37073782     0.07900
C2626       C  0.60744062  0.55748164  0.09858352     0.04900
C2627       C  0.61770609  0.54331042  0.12171408    -0.11200
C2628       C  0.64604899  0.55852529  0.13640457     0.02400
C2629       C  0.66401616  0.58734142  0.12874849    -0.09800
C2630       C  0.65487871  0.60215821  0.10641967     0.04900
C2631       C  0.62652284  0.58719724  0.09051252    -0.09200
H2632       H  0.60400227  0.52061750  0.12760177     0.10500
H2633       H  0.68570561  0.59869401  0.14105568     0.08000
H2634       H  0.61956910  0.59820995  0.07183603     0.07900
O2635       O  0.53042754  0.57245234  0.08112667    -0.84700
O2636       O  0.51067065  0.52145015  0.38171651    -0.84900
O2637       O  0.57971957  0.56665033  0.45387966    -0.86500
O2638       O  0.49240895  0.56377627  0.45061727    -0.85300
O2639       O  0.94611846  0.53031369  0.46631070    -0.84900
O2640       O  0.59135170  0.53254263  0.47005695    -0.86300
O2641       O  0.53585747  0.56456103  0.41525597    -0.84700
O2642       O  0.54028457  0.59151856  0.02181724    -0.84300
Zr2643     Zr  0.52843380  0.54991111  0.47627609     2.84300
O2644       O  0.98380990  0.51298113  0.45299944    -1.06300
O2645       O  0.53598411  0.53517811  0.02494812    -1.07000
C2646       C  0.54121052  0.59372190  0.05795853     1.08400
C2647       C  0.52629041  0.55038954  0.38466728     1.08300
C2648       C  0.59705558  0.55585808  0.45354142     1.11300
C2649       C  0.96421059  0.55275644  0.44879485     1.09100
H2650       H  0.54688786  0.51767833  0.43006494     0.34700
O2651       O  0.53384270  0.51204679  0.45093411    -1.27200
H2652       H  0.98644536  0.55282301  0.03268412     0.34300
O2653       O  0.48820585  0.53629885  0.02532992    -1.28900
O2654       O  0.95433078  0.92445309  0.42140364    -0.84700
O2655       O  0.98839315  0.97178490  0.12254102    -0.86200
O2656       O  0.54557060  0.96691461  0.45225431    -0.84800
O2657       O  0.90705656  0.97288017  0.45378584    -0.84800
O2658       O  0.93652869  0.52561888  0.05447684    -0.84500
O2659       O  0.57835015  0.52840379  0.04769739    -0.84300
O2660       O  0.50925670  0.92547347  0.05083418    -0.84700
O2661       O  0.92524257  0.92944257  0.05643569    -0.84200
O2662       O  0.55422778  0.95845540  0.03066182    -0.85200
O2663       O  0.91208253  0.96236210  0.03936671    -0.84400
O2664       O  0.51259901  0.95848940  0.40505094    -0.84800
O2665       O  0.55543647  0.53783923  0.09595141    -0.84500
O2666       O  0.97142795  0.53702949  0.10004577    -0.84200
O2667       O  0.92786520  0.95913444  0.40729595    -0.84600
O2668       O  0.94689775  0.90546767  0.48067066    -0.84900
O2669       O  0.96801169  0.92829333  0.08938677    -0.86200
Zr2670     Zr  0.98025755  0.97763527  0.42633991     2.83100
Zr2671     Zr  0.50374787  0.51899513  0.07656310     2.83500
Zr2672     Zr  0.54194340  0.49777719  0.00050041     2.84100
Zr2673     Zr  0.94374755  0.49937035  0.00255441     2.83400
Zr2674     Zr  0.97421948  0.94180857  0.02770867     2.84200
O2675       O  0.96777179  0.97942165  0.05119178    -1.06800
O2676       O  0.49758465  0.96138338  0.47668403    -1.06300
C2677       C  0.94499014  0.90326713  0.44453225     1.08400
C2678       C  0.97433638  0.94287142  0.11991057     1.11000
C2679       C  0.53331372  0.95564989  0.42036305     1.08600
C2680       C  0.90559226  0.95917934  0.42283168     1.08900
C2681       C  0.94946830  0.53806560  0.08571629     1.08500
C2682       C  0.57844014  0.54022969  0.07967899     1.08000
C2683       C  0.53741657  0.93622839  0.04960822     1.08500
C2684       C  0.90823721  0.94071727  0.05839096     1.08000
H2685       H  0.52614509  0.97445936  0.07235274     0.34700
O2686       O  0.51829719  0.97978230  0.05166413    -1.27900
H2687       H  0.93054952  0.94490494  0.47259784     0.34700
O2688       O  0.94916447  0.96123637  0.47911009    -1.29300
C2689       C  0.88339726  0.93057905  0.08562464     0.04900
C2690       C  0.87365100  0.95023037  0.09774474    -0.11200
C2691       C  0.85072075  0.94161501  0.12353415     0.03700
C2692       C  0.83777683  0.91412735  0.13684844    -0.09800
C2693       C  0.84603207  0.89452659  0.12514833     0.04900
C2694       C  0.86901590  0.90230811  0.09987030    -0.09200
H2695       H  0.88394239  0.97206231  0.08756195     0.10500
H2696       H  0.82014241  0.90753903  0.15666268     0.08000
H2697       H  0.87529462  0.88667866  0.09120153     0.07900
C2698       C  0.87527936  0.94125744  0.40653948     0.04900
C2699       C  0.85776608  0.95417423  0.40251977    -0.11200
C2700       C  0.82778241  0.93693311  0.39524549     0.02400
C2701       C  0.81484645  0.90718747  0.39356253    -0.09800
C2702       C  0.83117778  0.89366162  0.39439103     0.04900
C2703       C  0.86171461  0.91060887  0.40085583    -0.09200
H2704       H  0.86746334  0.97745803  0.40472782     0.10500
H2705       H  0.79172118  0.89437849  0.38750224     0.08000
H2706       H  0.87458171  0.90020692  0.40219837     0.07900
C2707       C  0.96250223  0.92133241  0.15121569     0.04900
C2708       C  0.97749844  0.90593923  0.15942558    -0.11200
C2709       C  0.96234439  0.87698471  0.17213607     0.02400
C2710       C  0.93292539  0.86373946  0.17804602    -0.09800
C2711       C  0.91693039  0.87622653  0.16718185     0.04900
C2712       C  0.93149560  0.90529909  0.15482294    -0.09200
H2713       H  0.00010476  0.91526033  0.15211368     0.10500
H2714       H  0.92160734  0.84157275  0.18758603     0.08000
H2715       H  0.91872143  0.91427124  0.14414146     0.07900
C2716       C  0.93142668  0.87377093  0.42868241     0.04900
C2717       C  0.90192275  0.85881946  0.41831786    -0.11200
C2718       C  0.88946898  0.83046768  0.40383432     0.02400
C2719       C  0.90578764  0.81692596  0.40088835    -0.09800
C2720       C  0.93518351  0.83205256  0.40885467     0.04900
C2721       C  0.94818293  0.86037534  0.42338321    -0.09200
H2722       H  0.88910823  0.86929646  0.42059300     0.10500
H2723       H  0.89622570  0.79544765  0.38796556     0.08000
H2724       H  0.97115823  0.87219824  0.42925686     0.07900
C2725       C  0.82159739  0.96324165  0.15678041    -0.11500
C2726       C  0.83809802  0.95852020  0.13816410    -0.13000
C2727       C  0.87040939  0.55677019  0.12768900    -0.11500
C2728       C  0.85077420  0.55505324  0.14618499    -0.13000
C2729       C  0.85880404  0.53711334  0.34875545    -0.11500
C2730       C  0.87905425  0.54195230  0.36946878    -0.13000
C2731       C  0.79233967  0.94908852  0.36134109    -0.11500
C2732       C  0.80981031  0.94776129  0.38144849    -0.13000
C2733       C  0.67677370  0.54480526  0.17823206    -0.11500
C2734       C  0.65884599  0.54636088  0.15958815    -0.13000
C2735       C  0.65369849  0.96509870  0.12688315    -0.11500
C2736       C  0.63175440  0.95543915  0.10803460    -0.13000
C2737       C  0.63031538  0.95912540  0.32195922    -0.11500
C2738       C  0.60942130  0.95460252  0.33990695    -0.13000
C2739       C  0.67877478  0.54636743  0.39645620    -0.11500
C2740       C  0.69269454  0.53861403  0.37758639    -0.13000
C2741       C  0.55022819  0.85947754  0.17384230    -0.11500
C2742       C  0.54848340  0.87316065  0.14831754    -0.13000
C2743       C  0.97408462  0.83521175  0.18269674    -0.11500
C2744       C  0.97360248  0.85718232  0.17523112    -0.13000
C2745       C  0.95133600  0.81982202  0.39309471    -0.11500
C2746       C  0.95776662  0.80663661  0.37127052    -0.13000
C2747       C  0.54431611  0.84520345  0.38490920    -0.11500
C2748       C  0.54449029  0.86667013  0.39749374    -0.13000
C2749       C  0.96889176  0.65875452  0.13964576    -0.11500
C2750       C  0.96469766  0.63654387  0.12424947    -0.13000
C2751       C  0.54722751  0.68166879  0.11900100    -0.11500
C2752       C  0.54324336  0.69580739  0.14244726    -0.13000
C2753       C  0.52970874  0.66444491  0.33977838    -0.11500
C2754       C  0.52811568  0.64103884  0.34465120    -0.13000
C2755       C  0.96371979  0.63231389  0.37558763    -0.11500
C2756       C  0.96522607  0.64972434  0.35369348    -0.13000
C2757       C  0.79663800  0.84137821  0.36631488    -0.11500
C2758       C  0.81486788  0.86321297  0.38287240    -0.13000
C2759       C  0.84514931  0.80233436  0.35973150    -0.11500
C2760       C  0.86267638  0.81654755  0.38359661    -0.13000
C2761       C  0.88582298  0.85559540  0.16529733    -0.11500
C2762       C  0.86322909  0.83296911  0.17026321    -0.13000
C2763       C  0.80935102  0.85095529  0.16110091    -0.11500
C2764       C  0.82854236  0.86685576  0.14085279    -0.13000
C2765       C  0.63251545  0.67665045  0.10428482    -0.11500
C2766       C  0.65302008  0.68898771  0.12493461    -0.13000
C2767       C  0.67557801  0.63297581  0.10494921    -0.11500
C2768       C  0.69604678  0.65478908  0.11846091    -0.13000
C2769       C  0.66841586  0.62446834  0.35792383    -0.11500
C2770       C  0.68365160  0.64023757  0.33375957    -0.13000
C2771       C  0.63335117  0.65618921  0.31743675    -0.11500
C2772       C  0.61089393  0.63445956  0.32552438    -0.13000
O2773       O  0.72554496  0.68571217  0.83214579    -0.73500
O2774       O  0.69333236  0.66244253  0.78473830    -0.52400
C2775       C  0.70128771  0.66554208  0.81917298     0.80200
O2776       O  0.75289125  0.80076650  0.85484525    -0.58100
O2777       O  0.79166180  0.82867587  0.81825720    -0.51100
C2778       C  0.77862005  0.82281464  0.84961458     0.72200
O2779       O  0.67239710  0.70962998  0.82951087    -0.72700
O2780       O  0.65914087  0.68075341  0.77697197    -0.53200
C2781       C  0.65514981  0.68575694  0.81090746     0.78200
O2782       O  0.80851036  0.76197064  0.84160904    -0.57800
O2783       O  0.82341533  0.80598901  0.81636021    -0.50900
C2784       C  0.82432364  0.78966307  0.84138549     0.74800
Zr2785     Zr  0.76830744  0.72428551  0.80396542     2.54700
O2786       O  0.78038915  0.70701978  0.86006565    -0.78400
O2787       O  0.79110569  0.69696562  0.78215776    -0.91800
Zr2788     Zr  0.71578701  0.75848503  0.81489667     2.64700
O2789       O  0.69832273  0.75550909  0.87866593    -0.96700
O2790       O  0.68677746  0.78148440  0.80520916    -0.78800
O2791       O  0.72475829  0.72237305  0.79790012    -0.82200
O2792       O  0.76318530  0.76485975  0.81709817    -2.16900
O2793       O  0.82173407  0.78658953  0.68350169    -0.65600
O2794       O  0.83205206  0.81817086  0.73306067    -0.50100
C2795       C  0.83738723  0.81165920  0.70060341     0.73200
O2796       O  0.69050224  0.73523424  0.66218868    -0.58500
O2797       O  0.66926266  0.69308057  0.69362643    -0.50400
C2798       C  0.67198760  0.70822461  0.66502634     0.75000
O2799       O  0.76402448  0.82109411  0.68648332    -0.69900
O2800       O  0.79958136  0.83866095  0.73136248    -0.48500
C2801       C  0.78964349  0.83932207  0.69898903     0.76400
O2802       O  0.73556654  0.69973935  0.65538842    -0.65200
O2803       O  0.70152194  0.66884527  0.69528402    -0.52400
C2804       C  0.71167970  0.67606200  0.66253854     0.74800
Zr2805     Zr  0.77553376  0.73864767  0.69539245     2.77500
O2806       O  0.79015587  0.73999922  0.63041103    -0.95900
O2807       O  0.80195224  0.71264213  0.70175321    -0.76800
Zr2808     Zr  0.72402837  0.77363432  0.70537256     2.70100
O2809       O  0.71757390  0.79292151  0.64712781    -0.78000
O2810       O  0.68918175  0.78862859  0.72233766    -0.97100
Zr2811     Zr  0.70328881  0.70119075  0.74303105     2.21500
Zr2812     Zr  0.78850626  0.79710326  0.76789462     2.11100
O2813       O  0.77096983  0.77955874  0.70583733    -2.45800
O2814       O  0.73095549  0.73486007  0.70117518    -0.77800
O2815       O  0.79603802  0.75703020  0.75649385    -0.70000
O2816       O  0.69581157  0.74127631  0.75336400    -2.30900
O2817       O  0.74975829  0.70443955  0.74302462    -2.27200
O2818       O  0.74160285  0.79287486  0.76704336    -0.71800
H2819       H  0.77051820  0.77105575  0.84222390     0.80200
H2820       H  0.67553118  0.73568207  0.75157193     0.81300
H2821       H  0.78164980  0.79109563  0.68510570     0.83600
H2822       H  0.74828245  0.68583355  0.73831094     0.81200
H2823       H  0.66659115  0.76593518  0.80925941     0.44200
H2824       H  0.69922958  0.80955139  0.71732547     0.43200
H2825       H  0.72735073  0.78730283  0.62788767     0.42800
H2826       H  0.79169101  0.75788414  0.62051169     0.40800
H2827       H  0.82147266  0.72751572  0.71076345     0.43900
H2828       H  0.77997530  0.67793877  0.79403563     0.38700
H2829       H  0.77170409  0.71244729  0.88097550     0.44800
H2830       H  0.71390454  0.75656843  0.89491452     0.41200
H2831       H  0.81039893  0.74398809  0.63187342     0.46200
H2832       H  0.81023239  0.70633316  0.79501217     0.44900
H2833       H  0.69876979  0.77406873  0.88341391     0.45000
H2834       H  0.67393636  0.77971016  0.70259878     0.45400
O2835       O  0.52497496  0.70515075  0.81803550    -0.73500
O2836       O  0.50913568  0.67551160  0.76609735    -0.52400
C2837       C  0.51792626  0.68099930  0.80009039     0.80200
O2838       O  0.94514361  0.76237835  0.82103530    -0.58100
O2839       O  0.97566475  0.80559089  0.79466806    -0.51100
C2840       C  0.95783986  0.79014563  0.81971167     0.72200
O2841       O  0.94810236  0.68254880  0.81661469    -0.72700
O2842       O  0.95667766  0.65795185  0.77069708    -0.53200
C2843       C  0.95146722  0.66150708  0.80483762     0.78200
O2844       O  0.53923265  0.79862761  0.83831888    -0.57800
O2845       O  0.53023775  0.82654423  0.79909450    -0.50900
C2846       C  0.53721896  0.82136438  0.83098067     0.74800
Zr2847     Zr  0.53170589  0.75399964  0.80229932     2.54700
O2848       O  0.53898188  0.74969965  0.86872396    -0.78400
O2849       O  0.58405846  0.77481785  0.80064791    -0.91800
Zr2850     Zr  0.94602207  0.72232776  0.78645450     2.64700
O2851       O  0.91408148  0.70465764  0.84032645    -0.96700
O2852       O  0.89643923  0.69685234  0.76228062    -0.78800
O2853       O  0.98668723  0.71863927  0.78339062    -0.82200
O2854       O  0.99210860  0.76245166  0.80063405    -2.16900
O2855       O  0.55259312  0.81498264  0.66961461    -0.65600
O2856       O  0.53529266  0.83444123  0.71265503    -0.50100
C2857       C  0.54577046  0.83389985  0.68056276     0.73200
O2858       O  0.96017760  0.69845882  0.63732758    -0.58500
O2859       O  0.95850681  0.66594867  0.67849749    -0.50400
C2860       C  0.95874534  0.67416431  0.64509090     0.75000
O2861       O  0.96088611  0.78454943  0.66288011    -0.69900
O2862       O  0.98172592  0.81623557  0.71236201    -0.48500
C2863       C  0.97051193  0.80979468  0.67955317     0.76400
O2864       O  0.53919667  0.72902896  0.65303245    -0.65200
O2865       O  0.51418408  0.68661632  0.68344714    -0.52400
C2866       C  0.52901774  0.70178080  0.65605216     0.74800
Zr2867     Zr  0.54336066  0.76823973  0.69325743     2.77500
O2868       O  0.57411586  0.78136196  0.63815904    -0.95900
O2869       O  0.59176621  0.78557323  0.71900590    -0.76800
Zr2870     Zr  0.95734818  0.73615602  0.67730935     2.70100
O2871       O  0.94495226  0.73929584  0.61254307    -0.78000
O2872       O  0.90474632  0.70946001  0.68069448    -0.97100
Zr2873     Zr  0.98745686  0.69649781  0.72950321     2.21500
Zr2874     Zr  0.00191718  0.79422760  0.74961753     2.11100
O2875       O  0.00333756  0.77587295  0.68876922    -2.45800
O2876       O  0.99691644  0.73075886  0.68709321    -0.77800
O2877       O  0.54345257  0.78829758  0.75355430    -0.70000
O2878       O  0.94558904  0.70185565  0.72609791    -2.30900
O2879       O  0.53549551  0.73545500  0.74217990    -2.27200
O2880       O  0.95393780  0.75507363  0.73730791    -0.71800
H2881       H  0.99121037  0.76964920  0.82523759     0.80200
H2882       H  0.92821515  0.68358631  0.72089819     0.81300
H2883       H  0.00476336  0.78695381  0.66725737     0.83600
H2884       H  0.54970001  0.72915292  0.74210220     0.81200
H2885       H  0.88865033  0.67664888  0.77012566     0.44200
H2886       H  0.89875827  0.72332421  0.67252054     0.43200
H2887       H  0.96375445  0.74885164  0.59951966     0.42800
H2888       H  0.56263941  0.78350829  0.61793724     0.40800
H2889       H  0.60166547  0.80681681  0.71655343     0.43900
H2890       H  0.58718794  0.75845430  0.80595334     0.38700
H2891       H  0.51919138  0.73856118  0.87885461     0.44800
H2892       H  0.92661119  0.71487344  0.86236410     0.41200
H2893       H  0.59023162  0.80122176  0.64346292     0.46200
H2894       H  0.59124129  0.78736829  0.82348404     0.44900
H2895       H  0.90098755  0.71275059  0.83817080     0.45000
H2896       H  0.89855633  0.69496543  0.65989105     0.45400
O2897       O  0.69340583  0.95579337  0.83861802    -0.73500
O2898       O  0.66644539  0.96848826  0.80284842    -0.52400
C2899       C  0.67200844  0.96020571  0.83346049     0.80200
O2900       O  0.80400241  0.54233854  0.84907621    -0.58100
O2901       O  0.82333058  0.51919564  0.81576921    -0.51100
C2902       C  0.82227354  0.53324506  0.84472514     0.72200
O2903       O  0.71715332  0.53555886  0.83751505    -0.72700
O2904       O  0.68653626  0.52701744  0.78822530    -0.53200
C2905       C  0.69334872  0.53211534  0.82324894     0.78200
O2906       O  0.77137773  0.94850027  0.81365915    -0.57800
O2907       O  0.80748179  0.97063823  0.77111722    -0.50900
C2908       C  0.79703424  0.95668297  0.80100303     0.74800
Zr2909     Zr  0.72906130  0.95391478  0.79657567     2.54700
O2910       O  0.71934558  0.92416039  0.85143220    -0.78400
O2911       O  0.69925999  0.90508068  0.77087848    -0.91800
Zr2912     Zr  0.76275634  0.54043280  0.81339914     2.64700
O2913       O  0.76357300  0.55625011  0.87822223    -0.96700
O2914       O  0.78721281  0.59265546  0.80699064    -0.78800
O2915       O  0.73112158  0.99749423  0.80300440    -0.82200
O2916       O  0.77391372  0.99715489  0.80267720    -2.16900
O2917       O  0.76199825  0.95952730  0.65362880    -0.65600
O2918       O  0.80392464  0.98013888  0.68834698    -0.50100
C2919       C  0.78885802  0.96685739  0.65889991     0.73200
O2920       O  0.74259932  0.54892664  0.66221863    -0.58500
O2921       O  0.70526179  0.54146839  0.69952229    -0.50400
C2922       C  0.71766944  0.54678409  0.66779271     0.75000
O2923       O  0.82726540  0.55345723  0.69137643    -0.69900
O2924       O  0.83796284  0.52918181  0.73474326    -0.48500
C2925       C  0.84351027  0.54420813  0.70545103     0.76400
O2926       O  0.68242457  0.96860536  0.66520691    -0.65200
O2927       O  0.66289164  0.98108579  0.71384635    -0.52400
C2928       C  0.66301144  0.97362716  0.67933091     0.74800
Zr2929     Zr  0.72389938  0.96420556  0.68805365     2.77500
O2930       O  0.71259421  0.95505549  0.62121231    -0.95900
O2931       O  0.69388369  0.91190885  0.69029436    -0.76800
Zr2932     Zr  0.77992052  0.55052358  0.70524864     2.70100
O2933       O  0.80130985  0.57870213  0.64954739    -0.78000
O2934       O  0.80091427  0.60019437  0.72838518    -0.97100
Zr2935     Zr  0.70167439  0.00157113  0.76112556     2.21500
Zr2936     Zr  0.79564448  0.00316159  0.74256341     2.11100
O2937       O  0.76893738  0.00757270  0.69187279    -2.45800
O2938       O  0.72277537  0.00718468  0.70134175    -0.77800
O2939       O  0.75096327  0.95831258  0.73722577    -0.70000
O2940       O  0.74843714  0.54924437  0.75399483    -2.30900
O2941       O  0.70047207  0.95699006  0.74719724    -2.27200
O2942       O  0.79551051  0.54439952  0.76534598    -0.71800
H2943       H  0.78374676  0.99493065  0.82379684     0.80200
H2944       H  0.74606654  0.56609873  0.75451930     0.81300
H2945       H  0.77741644  0.00891825  0.66766732     0.83600
H2946       H  0.68090040  0.94093072  0.74644364     0.81200
H2947       H  0.77285540  0.59809584  0.81552843     0.44200
H2948       H  0.82174233  0.60920283  0.72231548     0.43200
H2949       H  0.80032133  0.56447734  0.63051121     0.42800
H2950       H  0.72934974  0.97094416  0.60856775     0.40800
H2951       H  0.67507073  0.90772308  0.67930110     0.43900
H2952       H  0.67999240  0.89817423  0.78215092     0.38700
H2953       H  0.72915526  0.93810553  0.87247591     0.44800
H2954       H  0.76360518  0.54109554  0.89368639     0.41200
H2955       H  0.71363374  0.93747678  0.61482752     0.46200
H2956       H  0.70684820  0.89362931  0.78294651     0.44900
H2957       H  0.78307192  0.57337388  0.88213943     0.45000
H2958       H  0.79325443  0.60919231  0.71125245     0.45400
C2959       C  0.53131171  0.57238283  0.85114825     0.04900
C2960       C  0.56238313  0.58894627  0.84726358    -0.11200
C2961       C  0.57642069  0.61762994  0.83330648     0.02400
C2962       C  0.55976884  0.62923515  0.82177797    -0.09800
C2963       C  0.53039381  0.61566493  0.82842896     0.04900
C2964       C  0.51578514  0.58703634  0.84217568    -0.09200
H2965       H  0.57560999  0.58069465  0.85863340     0.10500
H2966       H  0.57056144  0.65110966  0.81122397     0.08000
H2967       H  0.49320690  0.57751602  0.84972290     0.07900
C2968       C  0.56293644  0.62055694  0.57410123     0.04900
C2969       C  0.54611961  0.63376465  0.57932262    -0.11200
C2970       C  0.55923663  0.66260558  0.59141085     0.02400
C2971       C  0.58893139  0.67840582  0.59791702    -0.09800
C2972       C  0.60563389  0.66522183  0.59422657     0.04900
C2973       C  0.59293377  0.63647895  0.58123134    -0.09200
H2974       H  0.52298144  0.62150497  0.57488530     0.10500
H2975       H  0.59861543  0.70025986  0.60958058     0.08000
H2976       H  0.60613263  0.62659525  0.57727728     0.07900
C2977       C  0.54615384  0.93123390  0.57935178     0.04900
C2978       C  0.57456808  0.95241741  0.59302583    -0.11200
C2979       C  0.59019093  0.94485895  0.61800315     0.02400
C2980       C  0.57805973  0.91665436  0.62865951    -0.09800
C2981       C  0.55078958  0.89574524  0.61630565     0.04900
C2982       C  0.53420265  0.90260299  0.59199454    -0.09200
H2983       H  0.58431631  0.97470094  0.58471630     0.10500
H2984       H  0.59017214  0.91082555  0.64774912     0.08000
H2985       H  0.51275859  0.88605283  0.58285264     0.07900
C2986       C  0.94719109  0.55541608  0.60318824     0.04900
C2987       C  0.95853851  0.58490244  0.59321434    -0.11200
C2988       C  0.94766134  0.60180815  0.61015270     0.02400
C2989       C  0.92557339  0.58917275  0.63578953    -0.09800
C2990       C  0.91339853  0.56039777  0.64454935     0.04900
C2991       C  0.92408655  0.54323972  0.62874590    -0.09200
H2992       H  0.97501440  0.59418545  0.57213270     0.10500
H2993       H  0.91703608  0.60196177  0.64873273     0.08000
H2994       H  0.91408582  0.52057985  0.63542134     0.07900
C2995       C  0.94256678  0.56960162  0.92620795     0.04900
C2996       C  0.95731588  0.59469415  0.90418610    -0.11200
C2997       C  0.94108100  0.60343787  0.88184896     0.02400
C2998       C  0.91111886  0.58790983  0.88155861    -0.09800
C2999       C  0.89614307  0.56268213  0.90084381     0.04900
C3000       C  0.91151977  0.55339875  0.92329522    -0.09200
H3001       H  0.98076057  0.60688296  0.90402306     0.10500
H3002       H  0.89906648  0.59477501  0.86396392     0.08000
H3003       H  0.89919844  0.53318523  0.93758025     0.07900
C3004       C  0.61246883  0.56576335  0.92287073     0.04900
C3005       C  0.62596013  0.59396520  0.90891474    -0.11200
C3006       C  0.64861904  0.60236240  0.88327594     0.02400
C3007       C  0.65765212  0.58342981  0.87111159    -0.09800
C3008       C  0.64489515  0.55564658  0.88369809     0.04900
C3009       C  0.62224425  0.54646612  0.90978616    -0.09200
H3010       H  0.61895843  0.60902316  0.91768516     0.10500
H3011       H  0.67508831  0.59052505  0.85093659     0.08000
H3012       H  0.61205009  0.52441721  0.91919141     0.07900
C3013       C  0.55773323  0.94050840  0.90069878     0.04900
C3014       C  0.54204810  0.91012475  0.89323914    -0.11200
C3015       C  0.55712355  0.89477419  0.88637172     0.02400
C3016       C  0.58709682  0.90969398  0.88632596    -0.09800
C3017       C  0.60260680  0.93940064  0.89119748     0.04900
C3018       C  0.58829407  0.95494378  0.89861116    -0.09200
H3019       H  0.51875762  0.89867151  0.89378224     0.10500
H3020       H  0.59862265  0.89814830  0.87984384     0.08000
H3021       H  0.60088288  0.97815944  0.90321844     0.07900
C3022       C  0.61629148  0.55506545  0.59683888     0.04900
C3023       C  0.63445636  0.54281341  0.59993537    -0.11200
C3024       C  0.66433788  0.56054069  0.60718707     0.02400
C3025       C  0.67646498  0.59022312  0.60985920    -0.09800
C3026       C  0.65942829  0.60304390  0.60851718     0.04900
C3027       C  0.62901759  0.58547906  0.60266384    -0.09200
H3028       H  0.62534982  0.51964349  0.59680487     0.10500
H3029       H  0.69953313  0.60353167  0.61591266     0.08000
H3030       H  0.61552715  0.59517197  0.60185735     0.07900
O3031       O  0.53837695  0.56975093  0.58215986    -0.84700
O3032       O  0.50367382  0.52209788  0.88034001    -0.84900
O3033       O  0.57084466  0.56673397  0.95115124    -0.86500
O3034       O  0.48575925  0.56788068  0.94942382    -0.85300
O3035       O  0.94033502  0.53608543  0.96953622    -0.84900
O3036       O  0.58238104  0.53224560  0.96634884    -0.86300
O3037       O  0.52775850  0.56561516  0.91327919    -0.84700
O3038       O  0.54809146  0.58875827  0.52285370    -0.84300
Zr3039     Zr  0.52044998  0.55234530  0.97521847     2.84300
O3040       O  0.97544055  0.51564129  0.95213564    -1.06300
O3041       O  0.54378630  0.53273853  0.52586410    -1.07000
C3042       C  0.54915935  0.59094904  0.55892134     1.08400
C3043       C  0.51966366  0.55098739  0.88276726     1.08300
C3044       C  0.58740564  0.55504002  0.94915920     1.11300
C3045       C  0.95773256  0.55780425  0.95015950     1.09100
H3046       H  0.53717402  0.51832502  0.92949491     0.34700
O3047       O  0.52470933  0.51347627  0.95089420    -1.27200
H3048       H  0.99417523  0.55013297  0.53256740     0.34300
O3049       O  0.49560952  0.53338529  0.52554853    -1.28900
O3050       O  0.96317845  0.92265152  0.92137522    -0.84700
O3051       O  0.98303901  0.97395560  0.62193043    -0.86200
O3052       O  0.55649470  0.96860673  0.95065492    -0.84800
O3053       O  0.91498580  0.96742310  0.95322733    -0.84800
O3054       O  0.94471183  0.52513713  0.55198965    -0.84500
O3055       O  0.58552145  0.52362557  0.54941023    -0.84300
O3056       O  0.50225185  0.92952099  0.55213494    -0.84700
O3057       O  0.91635490  0.93051627  0.55349290    -0.84200
O3058       O  0.54788383  0.96263426  0.53356271    -0.85200
O3059       O  0.90359008  0.96341248  0.53522733    -0.84400
O3060       O  0.52240317  0.95735973  0.90412108    -0.84800
O3061       O  0.56370136  0.53617076  0.59588581    -0.84500
O3062       O  0.97815199  0.53430625  0.59890894    -0.84200
O3063       O  0.93818901  0.95789506  0.90533208    -0.84600
O3064       O  0.95356230  0.90302188  0.98041514    -0.84900
O3065       O  0.95800756  0.93063589  0.58875334    -0.86200
Zr3066     Zr  0.98956947  0.97589402  0.92633916     2.83100
Zr3067     Zr  0.51130648  0.51642838  0.57699974     2.83500
Zr3068     Zr  0.54988682  0.49571249  0.50088810     2.84100
Zr3069     Zr  0.95105437  0.49607748  0.50243710     2.83400
Zr3070     Zr  0.96627658  0.94450603  0.52754863     2.84200
O3071       O  0.95989142  0.98218901  0.55139167    -1.06800
O3072       O  0.50598467  0.95900673  0.97694616    -1.06300
C3073       C  0.95238085  0.90121266  0.94421476     1.08400
C3074       C  0.96756319  0.94501521  0.61918937     1.11000
C3075       C  0.54435301  0.95647128  0.91909584     1.08600
C3076       C  0.91508176  0.95580454  0.92104154     1.08900
C3077       C  0.95713192  0.53674694  0.58388051     1.08500
C3078       C  0.58631280  0.53693087  0.58032691     1.08000
C3079       C  0.53057164  0.94068170  0.55258777     1.08500
C3080       C  0.89888353  0.94120259  0.55357417     1.08000
H3081       H  0.51842693  0.97767621  0.57238528     0.34700
O3082       O  0.51043418  0.98240656  0.55126794    -1.27900
H3083       H  0.93931302  0.94211734  0.97182937     0.34700
O3084       O  0.95767701  0.95864954  0.97872585    -1.29300
C3085       C  0.87188504  0.92937542  0.57713753     0.04900
C3086       C  0.85669902  0.94527800  0.57970783    -0.11200
C3087       C  0.83189096  0.93571659  0.60192739     0.03700
C3088       C  0.82183268  0.91047889  0.62104466    -0.09800
C3089       C  0.83700343  0.89569589  0.62150358     0.04900
C3090       C  0.86202059  0.90461909  0.59945618    -0.09200
H3091       H  0.86446873  0.96548773  0.56545918     0.10500
H3092       H  0.80281147  0.90335718  0.63850002     0.08000
H3093       H  0.87376598  0.89293109  0.60024245     0.07900
C3094       C  0.88609694  0.93873085  0.90172601     0.04900
C3095       C  0.87554786  0.95346000  0.88015747    -0.11200
C3096       C  0.84693331  0.93868788  0.86626970     0.02400
C3097       C  0.82874213  0.90993764  0.87381467    -0.09800
C3098       C  0.83815919  0.89434388  0.89397126     0.04900
C3099       C  0.86708845  0.90864419  0.90840296    -0.09200
H3100       H  0.88929468  0.97623699  0.87477428     0.10500
H3101       H  0.80674426  0.89909675  0.86245422     0.08000
H3102       H  0.87452711  0.89687083  0.92495206     0.07900
C3103       C  0.95904403  0.92295614  0.64978595     0.04900
C3104       C  0.97408070  0.90678322  0.65022306    -0.11200
C3105       C  0.95980028  0.87716922  0.66049114     0.02400
C3106       C  0.93147661  0.86411362  0.67212637    -0.09800
C3107       C  0.91535482  0.87773888  0.67019965     0.04900
C3108       C  0.92894080  0.90727909  0.65971351    -0.09200
H3109       H  0.99559893  0.91618814  0.63860458     0.10500
H3110       H  0.92077509  0.84152042  0.67991943     0.08000
H3111       H  0.91555900  0.91697593  0.65530241     0.07900
C3112       C  0.93675629  0.87188646  0.92785081     0.04900
C3113       C  0.90636358  0.85727792  0.92495079    -0.11200
C3114       C  0.89161027  0.82932790  0.90912384     0.02400
C3115       C  0.90671860  0.81571755  0.89760570    -0.09800
C3116       C  0.93668082  0.83060029  0.89815905     0.04900
C3117       C  0.95197794  0.85853587  0.91396716    -0.09200
H3118       H  0.89453148  0.86797291  0.93343606     0.10500
H3119       H  0.89515460  0.79458805  0.88367413     0.08000
H3120       H  0.97530633  0.86995609  0.91467538     0.07900
C3121       C  0.80367549  0.95993748  0.62994787    -0.11500
C3122       C  0.81781287  0.95223605  0.61135102    -0.13000
C3123       C  0.88854035  0.54990099  0.66799853    -0.11500
C3124       C  0.86841859  0.54814224  0.68546575    -0.13000
C3125       C  0.84352363  0.53909351  0.87393894    -0.11500
C3126       C  0.86542447  0.54622121  0.89213316    -0.13000
C3127       C  0.81704438  0.95311595  0.82362603    -0.11500
C3128       C  0.83429943  0.95099699  0.84303588    -0.13000
C3129       C  0.70108971  0.54815664  0.63705511    -0.11500
C3130       C  0.68308723  0.54986442  0.61853049    -0.13000
C3131       C  0.63979850  0.97066644  0.65459202    -0.11500
C3132       C  0.61854123  0.96403654  0.63493032    -0.13000
C3133       C  0.65317205  0.95685442  0.86367211    -0.11500
C3134       C  0.63252936  0.95280392  0.88173349    -0.13000
C3135       C  0.65675793  0.53859582  0.86774168    -0.11500
C3136       C  0.67267242  0.53370023  0.84835934    -0.13000
C3137       C  0.54427721  0.85207805  0.65283401    -0.11500
C3138       C  0.54190587  0.86818503  0.63186462    -0.13000
C3139       C  0.97030030  0.83402925  0.66155361    -0.11500
C3140       C  0.97053072  0.85679281  0.65684736    -0.13000
C3141       C  0.94990805  0.81857371  0.87486804    -0.11500
C3142       C  0.95382386  0.80544031  0.85008849    -0.13000
C3143       C  0.54109150  0.84260637  0.85974213    -0.11500
C3144       C  0.54415914  0.86444005  0.87539476    -0.13000
C3145       C  0.95906593  0.65471762  0.61612520    -0.11500
C3146       C  0.95777180  0.63236305  0.60488585    -0.13000
C3147       C  0.54264963  0.67466248  0.60590633    -0.11500
C3148       C  0.53472168  0.68708326  0.62668892    -0.13000
C3149       C  0.51817022  0.65700168  0.81828917    -0.11500
C3150       C  0.51867910  0.63503066  0.82545713    -0.13000
C3151       C  0.95260995  0.62686714  0.85608692    -0.11500
C3152       C  0.95241971  0.64258515  0.83228474    -0.13000
C3153       C  0.79623964  0.84214883  0.88020362    -0.11500
C3154       C  0.81697175  0.86353476  0.89427765    -0.13000
C3155       C  0.84360013  0.80376627  0.87222151    -0.11500
C3156       C  0.86284066  0.81667423  0.89462156    -0.13000
C3157       C  0.88443334  0.85789141  0.67528509    -0.11500
C3158       C  0.86219541  0.83567422  0.68292980    -0.13000
C3159       C  0.81017077  0.85844931  0.67258893    -0.11500
C3160       C  0.82613496  0.87324912  0.64835207    -0.13000
C3161       C  0.63363154  0.67985572  0.61180261    -0.11500
C3162       C  0.65287739  0.69354573  0.63405008    -0.13000
C3163       C  0.67494498  0.63374197  0.61798415    -0.11500
C3164       C  0.69344842  0.65593325  0.63326482    -0.13000
C3165       C  0.66373491  0.62981391  0.86663769    -0.11500
C3166       C  0.68085075  0.64700671  0.84556344    -0.13000
C3167       C  0.63013277  0.66137396  0.82817844    -0.11500
C3168       C  0.60757217  0.63877298  0.83396236    -0.13000
loop_ 
_geom_bond_atom_site_label_1 
_geom_bond_atom_site_label_2 
_geom_bond_distance 
_geom_bond_site_symmetry_2 
_ccdc_geom_bond_type 
O1          Zr13   2.419       .  S
O1            C3   1.278       .  A
O2          Zr39   2.411       .  S
O2            C3   1.280       .  A
C3          C394   1.420       .  S
O4          Zr16   2.540       .  S
O4            C6   1.303       .  A
O5          Zr40   2.387       .  S
O5            C6   1.277       .  A
C6          C381   1.458       .  S
O7          Zr16   2.542       .  S
O7            C9   1.306       .  A
O8          Zr39   2.385       .  S
O8            C9   1.276       .  A
C9          C395   1.468       .  S
O10         Zr13   2.455       .  S
O10          C12   1.286       .  A
O11         Zr40   2.400       .  S
O11          C12   1.279       .  A
C12         C383   1.423       .  S
Zr13         O14   2.438       .  S
Zr13         O15   2.436       .  S
Zr13         O19   2.281       .  S
Zr13         O20   2.354       .  S
Zr13         O43   2.379       .  S
Zr13         O45   2.385       .  S
O14          H57   0.990       .  S
O15          H56   0.991       .  S
O15          H60   0.990       .  S
Zr16         O17   2.438       .  S
Zr16         O18   2.435       .  S
Zr16         O19   2.278       .  S
Zr16         O20   2.375       .  S
Zr16         O44   2.396       .  S
Zr16         O46   2.407       .  S
O17          H58   0.990       .  S
O17          H61   0.991       .  S
O18          H51   0.990       .  S
O19         Zr39   2.245       .  S
O20         Zr40   2.383       .  S
O20          H47   0.961       .  S
O21         Zr33   2.560       .  S
O21          C23   1.309       .  A
O22         Zr40   2.377       .  S
O22          C23   1.275       .  A
C23         C386   1.460       .  S
O24         Zr36   2.446       .  S
O24          C26   1.285       .  A
O25         Zr39   2.401       .  S
O25          C26   1.279       .  A
C26         C390   1.428       .  S
O27         Zr36   2.470       .  S
O27          C29   1.290       .  A
O28         Zr40   2.406       .  S
O28          C29   1.279       .  A
C29         C387   1.433       .  S
O30         Zr33   2.520       .  S
O30          C32   1.301       .  A
O31         Zr39   2.370       .  S
O31          C32   1.272       .  A
C32         C392   1.450       .  S
Zr33         O34   2.438       .  S
Zr33         O35   2.435       .  S
Zr33         O42   2.291       .  S
Zr33         O41   2.339       .  S
Zr33         O45   2.396       .  S
Zr33         O43   2.398       .  S
O34          H54   0.990       .  S
O34          H59   0.991       .  S
O35          H55   0.990       .  S
Zr36         O37   2.438       .  S
Zr36         O38   2.433       .  S
Zr36         O42   2.280       .  S
Zr36         O41   2.359       .  S
Zr36         O46   2.392       .  S
Zr36         O44   2.390       .  S
O37          H53   0.990       .  S
O38          H52   0.990       .  S
O38          H62   0.991       .  S
Zr39         O42   2.260       .  S
Zr39         O44   2.387       .  S
Zr39         O45   2.394       .  S
Zr40         O41   2.387       .  S
Zr40         O43   2.394       .  S
Zr40         O46   2.394       .  S
O41          H49   0.959       .  S
O44          H48   0.968       .  S
O45          H50   0.968       .  S
O63         Zr75   2.526       .  S
O63          C65   1.303       .  A
O64       Zr1685   2.377   1_455  S
O64          C65   1.275       .  A
C65         C377   1.455       .  S
O66         Zr78   2.469       .  S
O66          C68   1.289       .  A
O67        Zr102   2.392       .  S
O67          C68   1.277       .  A
C68         C370   1.424       .  S
O69         Zr78   2.453       .  S
O69          C71   1.286       .  A
O70        Zr101   2.418       .  S
O70          C71   1.281       .  A
C71         C380   1.441       .  S
O72         Zr75   2.533       .  S
O72          C74   1.303       .  A
O73       Zr1686   2.376       .  S
O73          C74   1.275       .  A
C74         C371   1.450       .  S
Zr75         O76   2.436       .  S
Zr75         O77   2.434       .  S
Zr75       O1665   2.280   1_455  S
Zr75        O105   2.401       .  S
Zr75        O107   2.396       .  S
Zr75       O1666   2.368   1_455  S
O76         H119   0.990       .  S
O77         H118   0.990       .  S
O77         H122   0.991       .  S
Zr78         O79   2.441       .  S
Zr78         O80   2.436       .  S
Zr78         O81   2.274       .  S
Zr78         O82   2.362       .  S
Zr78        O106   2.391       .  S
Zr78        O108   2.389       .  S
O79         H120   0.990       .  S
O79         H123   0.991       .  S
O80         H113   0.991       .  S
O81        Zr101   2.248       .  S
O81       Zr1659   2.280       .  S
O82        Zr102   2.390       .  S
O82       Zr1659   2.368       .  S
O82         H109   0.962       .  S
O83         Zr95   2.460       .  S
O83          C85   1.287       .  A
O84       Zr1686   2.413       .  S
O84          C85   1.281       .  A
C85         C365   1.430       .  S
O86         Zr98   2.510       .  S
O86          C88   1.297       .  A
O87        Zr101   2.391       .  S
O87          C88   1.277       .  A
C88         C373   1.457       .  S
O89         Zr98   2.560       .  S
O89          C91   1.309       .  A
O90        Zr102   2.373       .  S
O90          C91   1.274       .  A
C91         C367   1.462       .  S
O92         Zr95   2.431       .  S
O92          C94   1.282       .  A
O93       Zr1685   2.393   1_455  S
O93          C94   1.277       .  A
C94         C376   1.418       .  S
Zr95         O96   2.441       .  S
Zr95         O97   2.435       .  S
Zr95       O1688   2.284   1_455  S
Zr95        O107   2.385       .  S
Zr95        O105   2.383       .  S
Zr95       O1687   2.368       .  S
O96         H116   0.990       .  S
O96         H121   0.990       .  S
O97         H117   0.990       .  S
Zr98         O99   2.436       .  S
Zr98        O100   2.433       .  S
Zr98        O104   2.293       .  S
Zr98        O103   2.334       .  S
Zr98        O108   2.395       .  S
Zr98        O106   2.402       .  S
O99         H115   0.990       .  S
O100        H114   0.990       .  S
O100        H124   0.990       .  S
Zr101      O1648   2.377       .  S
Zr101      O1677   2.393       .  S
Zr101       O104   2.256       .  S
Zr101       O106   2.390       .  S
Zr101      O1691   2.394       .  S
Zr102      O1657   2.376       .  S
Zr102      O1668   2.413       .  S
Zr102       O103   2.381       .  S
Zr102       O108   2.393       .  S
Zr102      O1689   2.391       .  S
O103      Zr1679   2.368       .  S
O103        H111   0.959       .  S
O104      Zr1679   2.284       .  S
O105      Zr1686   2.391       .  S
O106        H110   0.967       .  S
O107      Zr1685   2.394   1_455  S
O107        H112   0.970       .  S
O125       Zr137   2.461       .  S
O125        C127   1.288       .  A
O126       Zr163   2.380       .  S
O126        C127   1.276       .  A
C127        C361   1.425       .  S
O128       Zr140   2.496       .  S
O128        C130   1.295       .  A
O129       Zr956   2.415   1_545  S
O129        C130   1.283       .  A
C130        C353   1.449       .  S
O131       Zr140   2.468       .  S
O131        C133   1.290       .  A
O132       Zr955   2.436       .  S
O132        C133   1.287       .  A
C133        C364   1.454       .  S
O134       Zr137   2.489       .  S
O134        C136   1.295       .  A
O135       Zr164   2.371       .  S
O135        C136   1.274       .  A
C136        C355   1.426       .  S
Zr137       O138   2.437       .  S
Zr137       O139   2.436       .  S
Zr137       O143   2.282       .  S
Zr137       O144   2.359       .  S
Zr137       O167   2.378       .  S
Zr137       O169   2.390       .  S
O138        H181   0.990       .  S
O139        H180   0.990       .  S
O139        H184   0.990       .  S
Zr140       O141   2.440       .  S
Zr140       O142   2.436       .  S
Zr140       O935   2.277   1_545  S
Zr140       O168   2.387       .  S
Zr140       O170   2.384       .  S
Zr140       O936   2.354   1_545  S
O141        H182   0.990       .  S
O141        H185   0.991       .  S
O142        H175   0.990       .  S
O143       Zr163   2.257       .  S
O143       Zr932   2.282       .  S
O144       Zr164   2.389       .  S
O144       Zr932   2.360       .  S
O144        H171   0.960       .  S
O145       Zr157   2.488       .  S
O145        C147   1.294       .  A
O146       Zr164   2.428       .  S
O146        C147   1.285       .  A
C147        C349   1.451       .  S
O148       Zr160   2.478       .  S
O148        C150   1.291       .  A
O149       Zr955   2.388       .  S
O149        C150   1.276       .  A
C150        C357   1.434       .  S
O151       Zr160   2.498       .  S
O151        C153   1.297       .  A
O152       Zr956   2.371   1_545  S
O152        C153   1.274       .  A
C153        C352   1.429       .  S
O154       Zr157   2.475       .  S
O154        C156   1.291       .  A
O155       Zr163   2.445       .  S
O155        C156   1.288       .  A
C156        C359   1.460       .  S
Zr157       O158   2.439       .  S
Zr157       O159   2.433       .  S
Zr157       O165   2.363       .  S
Zr157       O166   2.365       .  S
Zr157       O169   2.392       .  S
Zr157       O167   2.394       .  S
O158        H178   0.990       .  S
O158        H183   0.990       .  S
O159        H179   0.990       .  S
Zr160       O161   2.435       .  S
Zr160       O162   2.433       .  S
Zr160       O170   2.387       .  S
Zr160       O168   2.396       .  S
Zr160       O958   2.376       .  S
Zr160       O957   2.360       .  S
O161        H177   0.990       .  S
O162        H176   0.991       .  S
O162        H186   0.990       .  S
Zr163       O924   2.421       .  S
Zr163       O941   2.370       .  S
Zr163       O166   2.366       .  S
Zr163       O169   2.392       .  S
Zr163       O960   2.395       .  S
Zr164       O921   2.453       .  S
Zr164       O944   2.384       .  S
Zr164       O165   2.388       .  S
Zr164       O167   2.394       .  S
Zr164       O962   2.391       .  S
O165       Zr952   2.374       .  S
O165        H173   0.962       .  S
O166       Zr952   2.366       .  S
O168       Zr955   2.393       .  S
O168        H172   0.969       .  S
O169        H174   0.964       .  S
O170       Zr956   2.394   1_545  S
C187        C188   1.444       .  A
C187        C192   1.434       .  A
C187        C271   1.520       .  S
C188        C189   1.430       .  A
C188        H193   1.083       .  S
C189        C396   1.469       .  S
C189        C190   1.378       .  A
C190        C191   1.381       .  A
C190        H194   1.089       .  S
C191        C378   1.456       .  S
C191        C192   1.424       .  A
C192        H195   1.083   1_455  S
C196        C197   1.400       .  A
C196        C201   1.406       .  A
C196        C270   1.463       .  S
C197        C198   1.395       .  A
C197        H202   1.079       .  S
C198        C375   1.421       .  S
C198        C199   1.388       .  A
C199        C200   1.388       .  A
C199        H203   1.087       .  S
C200        C389   1.430       .  S
C200        C201   1.401       .  A
C201        H204   1.077       .  S
C205        C206   1.441       .  A
C205        C210   1.416       .  A
C205        C307   1.515       .  S
C206        C207   1.414       .  A
C206        H211   1.083       .  S
C207        C360   1.458       .  S
C207        C208   1.373       .  A
C208        C209   1.383       .  A
C208        H212   1.089       .  S
C209        C366   1.428       .  S
C209        C210   1.415       .  A
C210        H213   1.083       .  S
C214        C215   1.431       .  A
C214        C219   1.413       .  A
C214        C305   1.500       .  S
C215        C216   1.420       .  A
C215        H220   1.079       .  S
C216        C374   1.458       .  S
C216        C217   1.383       .  A
C217        C218   1.381       .  A
C217        H221   1.088       .  S
C218        C351   1.431       .  S
C218        C219   1.408       .  A
C219        H222   1.084       .  S
C223        C224   1.423       .  A
C223        C228   1.436       .  A
C223        C273   1.520       .  S
C224        C225   1.421       .  A
C224        H229   1.083       .  S
C225        C379   1.439       .  S
C225        C226   1.384       .  A
C226        C227   1.376       .  A
C226        H230   1.089       .  S
C227        C354   1.449       .  S
C227        C228   1.407       .  A
C228        H231   1.083       .  S
C232        C233   1.409       .  A
C232        C237   1.438       .  A
C232        C272   1.501       .  S
C233        C234   1.405       .  A
C233        H238   1.083       .  S
C234        C393   1.418       .  S
C234        C235   1.382       .  A
C235        C236   1.374       .  A
C235        H239   1.089       .  S
C236        C363   1.452       .  S
C236        C237   1.412       .  A
C237        H240   1.083       .  S
C241        C242   1.425       .  A
C241        C246   1.414       .  A
C241        C303   1.500       .  S
C242        C243   1.424       .  A
C242        H247   1.076       .  S
C243        C372   1.454       .  S
C243        C244   1.384       .  A
C244        C245   1.382       .  A
C244        H248   1.088       .  S
C245        C362   1.428       .  S
C245        C246   1.401       .  A
C246        H249   1.085       .  S
C250        C251   1.419       .  A
C250        C255   1.425       .  A
C250        C306   1.506       .  S
C251        C252   1.408       .  A
C251        H256   1.084       .  S
C252        C358   1.437       .  S
C252        C253   1.383       .  A
C253        C254   1.385       .  A
C253        H257   1.088       .  S
C254        C391   1.453       .  S
C254        C255   1.422       .  A
C255        H258   1.076       .  S
O259       Zr295   2.471       .  S
O259        C270   1.300       .  A
O260      Zr2670   2.665   1_445  S
O260        C271   1.341       .  A
O261       Zr267   2.551       .  S
O261        C272   1.312       .  A
O262       Zr267   2.552   1_655  S
O262       C1857   1.311       .  A
O263       Zr693   2.392   1_545  S
O263        C273   1.282       .  A
O264       Zr692   2.378   1_545  S
O264        C272   1.279       .  A
O265       Zr267   2.309       .  S
O265        C271   1.269       .  A
O266       Zr663   2.419   1_554  S
O266        C270   1.289       .  A
Zr267       O662   2.431       .  S
Zr267       O275   2.348       .  S
Zr267      O1852   2.348   1_455  S
Zr267       O665   2.345       .  S
Zr267       O673   2.341   1_455  S
O268      Zr1851   2.348       .  S
O268      Zr1086   2.341   1_545  S
O268       Zr693   2.334   1_545  S
O269       Zr295   2.377       .  S
O269       Zr296   2.320   1_545  S
O269       Zr663   2.336   1_554  S
C273       O1846   1.311       .  A
H274        O275   0.964       .  S
O275      Zr2670   2.333   1_445  S
O275       Zr692   2.347   1_545  S
H276       O1861   0.963       .  S
O277       Zr295   2.391   1_655  S
O277       Zr663   2.336   1_654  S
O277      Zr1881   2.344   1_545  S
O277       H1860   0.963       .  S
O278       Zr294   2.467       .  S
O278        C301   1.300       .  A
O279      Zr2671   2.673       .  S
O279        C302   1.342       .  A
O280      Zr1484   2.416       .  S
O280        C303   1.288       .  A
O281      Zr1485   2.464       .  S
O281        C304   1.296       .  A
O282       Zr297   2.462   1_545  S
O282        C305   1.296       .  A
O283       Zr296   2.427   1_545  S
O283        C306   1.289       .  A
O284      Zr1882   2.577   1_455  S
O284        C307   1.317       .  A
O285       Zr298   2.557       .  S
O285        C308   1.313       .  A
O286      Zr1088   2.388       .  S
O286        C307   1.281       .  A
O287      Zr1089   2.371       .  S
O287        C308   1.279       .  A
O288      Zr1878   2.523   1_455  S
O288        C303   1.308       .  A
O289       Zr295   2.528       .  S
O289        C306   1.309       .  A
O290      Zr1879   2.510       .  S
O290        C305   1.306       .  A
O291       Zr294   2.514       .  S
O291        C304   1.307       .  A
O292       Zr694   2.436       .  S
O292        C301   1.293       .  A
O293       Zr298   2.293       .  S
O293        C302   1.267       .  A
Zr294      O2636   2.675       .  S
Zr294      O1872   2.523       .  S
Zr294       O312   2.397       .  S
Zr294      O1060   2.336       .  S
Zr294      O2651   2.333       .  S
Zr294      O1884   2.386       .  S
Zr295      O2655   2.660   1_445  S
Zr295      O1874   2.510   1_455  S
Zr295      O2675   2.341   1_445  S
Zr295      O1102   2.333   1_545  S
Zr296       O660   2.391   1_564  S
Zr296      O1468   2.416   1_554  S
Zr296      O1078   2.386       .  S
Zr296       O671   2.341   1_564  S
Zr296      O1488   2.323   1_554  S
Zr296      O1102   2.341       .  S
Zr297       O659   2.378   1_564  S
Zr297      O1469   2.464   1_554  S
Zr297      O1079   2.379       .  S
Zr297       O664   2.339   1_564  S
Zr297      O1861   2.344   1_565  S
Zr297      O1091   2.338       .  S
Zr297      O1500   2.340   1_554  S
Zr298      O1868   2.577       .  S
Zr298       O688   2.433   1_554  S
Zr298       O299   2.347       .  S
Zr298      O2280   2.337   1_554  S
Zr298       O708   2.344   1_554  S
Zr298      O1894   2.350       .  S
O299      Zr2671   2.339       .  S
O299      Zr1089   2.339       .  S
O300      Zr1878   2.386   1_455  S
O300      Zr1484   2.323       .  S
O300      Zr2278   2.348   1_455  S
C301        C340   1.466       .  S
C302        C331   1.519       .  S
C304        C322   1.503       .  S
C308        C313   1.514       .  S
H309        O310   0.964       .  S
O310      Zr1087   2.321       .  S
O310      Zr1088   2.338       .  S
O310      Zr1882   2.350   1_455  S
H311        O312   0.962       .  S
O312      Zr1485   2.340       .  S
O312       Zr694   2.345       .  S
C313        C314   1.438       .  A
C313        C318   1.418       .  A
C314        C315   1.407       .  A
C314        H319   1.083       .  S
C315        C350   1.450       .  S
C315        C316   1.374       .  A
C316        C317   1.384       .  A
C316        H320   1.089       .  S
C317        C388   1.431       .  S
C317        C318   1.416       .  A
C318        H321   1.083       .  S
C322        C323   1.412       .  A
C322        C327   1.434       .  A
C323        C324   1.405       .  A
C323        H328   1.084       .  S
C324        C356   1.427       .  S
C324        C325   1.379       .  A
C325        C326   1.380       .  A
C325        H329   1.089       .  S
C326        C382   1.459       .  S
C326        C327   1.425       .  A
C327        H330   1.080       .  S
C331        C332   1.442       .  A
C331        C336   1.439       .  A
C332        C333   1.428       .  A
C332        H337   1.083       .  S
C333        C368   1.464       .  S
C333        C334   1.378       .  A
C334        C335   1.378       .  A
C334        H338   1.089       .  S
C335        C385   1.461       .  S
C335        C336   1.428       .  A
C336        H339   1.083       .  S
C340        C341   1.406       .  A
C340        C345   1.405       .  A
C341        C342   1.400       .  A
C341        H346   1.081       .  S
C342        C384   1.423       .  S
C342        C343   1.385       .  A
C343        C344   1.383       .  A
C343        H347   1.088       .  S
C344        C369   1.425       .  S
C344        C345   1.400       .  A
C345        H348   1.077       .  S
C349        C350   1.215       .  T
C351        C352   1.204       .  T
C353        C354   1.214       .  T
C355        C356   1.202       .  T
C357        C358   1.206       .  T
C359        C360   1.220       .  T
C361        C362   1.200       .  T
C363        C364   1.217       .  T
C365        C366   1.205       .  T
C367        C368   1.225       .  T
C369        C370   1.200       .  T
C371        C372   1.217       .  T
C373        C374   1.221       .  T
C375        C376   1.195       .  T
C377        C378   1.220       .  T
C379        C380   1.210       .  T
C381        C382   1.222       .  T
C383        C384   1.198       .  T
C385        C386   1.224       .  T
C387        C388   1.206       .  T
C389        C390   1.201       .  T
C391        C392   1.217       .  T
C393        C394   1.198       .  T
C395        C396   1.228       .  T
O397       Zr409   2.452       .  S
O397        C399   1.286       .  A
O398       Zr435   2.416       .  S
O398        C399   1.281       .  A
C399        C790   1.439       .  S
O400       Zr412   2.551       .  S
O400        C402   1.307       .  A
O401       Zr436   2.375       .  S
O401        C402   1.275       .  A
C402        C777   1.457       .  S
O403       Zr412   2.527       .  S
O403        C405   1.304       .  A
O404       Zr435   2.380       .  S
O404        C405   1.276       .  A
C405        C791   1.457       .  S
O406       Zr409   2.465       .  S
O406        C408   1.289       .  A
O407       Zr436   2.394       .  S
O407        C408   1.278       .  A
C408        C779   1.424       .  S
Zr409       O410   2.438       .  S
Zr409       O411   2.435       .  S
Zr409       O415   2.270       .  S
Zr409       O416   2.363       .  S
Zr409       O439   2.387       .  S
Zr409       O441   2.390       .  S
O410        H453   0.990       .  S
O411        H452   0.990       .  S
O411        H456   0.990       .  S
Zr412       O413   2.436       .  S
Zr412       O414   2.435       .  S
Zr412       O415   2.280       .  S
Zr412       O416   2.362       .  S
Zr412       O440   2.401       .  S
Zr412       O442   2.399       .  S
O413        H454   0.990       .  S
O413        H457   0.990       .  S
O414        H447   0.990       .  S
O415       Zr435   2.248       .  S
O416       Zr436   2.388       .  S
O416        H443   0.961       .  S
O417       Zr429   2.559       .  S
O417        C419   1.308       .  A
O418       Zr436   2.375       .  S
O418        C419   1.275       .  A
C419        C782   1.461       .  S
O420       Zr432   2.434       .  S
O420        C422   1.283       .  A
O421       Zr435   2.396       .  S
O421        C422   1.278       .  A
C422        C786   1.421       .  S
O423       Zr432   2.452       .  S
O423        C425   1.286       .  A
O424       Zr436   2.411       .  S
O424        C425   1.279       .  A
C425        C783   1.429       .  S
O426       Zr429   2.506       .  S
O426        C428   1.296       .  A
O427       Zr435   2.392       .  S
O427        C428   1.277       .  A
C428        C788   1.455       .  S
Zr429       O430   2.438       .  S
Zr429       O431   2.434       .  S
Zr429       O438   2.296       .  S
Zr429       O437   2.335       .  S
Zr429       O441   2.403       .  S
Zr429       O439   2.395       .  S
O430        H450   0.990       .  S
O430        H455   0.991       .  S
O431        H451   0.990       .  S
Zr432       O433   2.439       .  S
Zr432       O434   2.435       .  S
Zr432       O438   2.286       .  S
Zr432       O437   2.373       .  S
Zr432       O442   2.382       .  S
Zr432       O440   2.383       .  S
O433        H449   0.990       .  S
O434        H448   0.990       .  S
O434        H458   0.990       .  S
Zr435       O438   2.256       .  S
Zr435       O440   2.394       .  S
Zr435       O441   2.391       .  S
Zr436       O437   2.383       .  S
Zr436       O439   2.390       .  S
Zr436       O442   2.390       .  S
O437        H445   0.959       .  S
O440        H444   0.969       .  S
O441        H446   0.968       .  S
O459       Zr471   2.538       .  S
O459        C461   1.305       .  A
O460      Zr2081   2.380       .  S
O460        C461   1.274       .  A
C461        C773   1.465       .  S
O462       Zr474   2.466       .  S
O462        C464   1.289       .  A
O463       Zr498   2.396       .  S
O463        C464   1.278       .  A
C464        C766   1.425       .  S
O465       Zr474   2.424       .  S
O465        C467   1.280       .  A
O466       Zr497   2.416       .  S
O466        C467   1.282       .  A
C467        C776   1.423       .  S
O468       Zr471   2.524       .  S
O468        C470   1.301       .  A
O469      Zr2082   2.394       .  S
O469        C470   1.280       .  A
C470        C767   1.453       .  S
Zr471       O472   2.435       .  S
Zr471       O473   2.435       .  S
Zr471      O2061   2.275   1_455  S
Zr471      O2062   2.376       .  S
Zr471       O501   2.410       .  S
Zr471       O503   2.396       .  S
O472        H515   0.990       .  S
O473        H514   0.990       .  S
O473        H518   0.990       .  S
Zr474       O475   2.441       .  S
Zr474       O476   2.437       .  S
Zr474       O477   2.281       .  S
Zr474       O478   2.356       .  S
Zr474       O502   2.386       .  S
Zr474       O504   2.378       .  S
O475        H516   0.990       .  S
O475        H519   0.991       .  S
O476        H509   0.991       .  S
O477      Zr2055   2.275       .  S
O477       Zr497   2.244       .  S
O478      Zr2055   2.376       .  S
O478       Zr498   2.387       .  S
O478        H505   0.961       .  S
O479       Zr491   2.480       .  S
O479        C481   1.293       .  A
O480      Zr2082   2.421       .  S
O480        C481   1.283       .  A
C481        C761   1.442       .  S
O482       Zr494   2.502       .  S
O482        C484   1.297       .  A
O483       Zr497   2.373       .  S
O483        C484   1.274       .  A
C484        C769   1.442       .  S
O485       Zr494   2.546       .  S
O485        C487   1.306       .  A
O486       Zr498   2.378       .  S
O486        C487   1.276       .  A
C487        C763   1.457       .  S
O488       Zr491   2.455       .  S
O488        C490   1.287       .  A
O489      Zr2081   2.402       .  S
O489        C490   1.279       .  A
C490        C772   1.433       .  S
Zr491       O492   2.441       .  S
Zr491       O493   2.434       .  S
Zr491      O2084   2.280       .  S
Zr491      O2083   2.364       .  S
Zr491       O503   2.391       .  S
Zr491       O501   2.391       .  S
O492        H512   0.990       .  S
O492        H517   0.991       .  S
O493        H513   0.990       .  S
Zr494       O495   2.436       .  S
Zr494       O496   2.435       .  S
Zr494       O500   2.290       .  S
Zr494       O499   2.337       .  S
Zr494       O504   2.395       .  S
Zr494       O502   2.394       .  S
O495        H511   0.990       .  S
O496        H510   0.990       .  S
O496        H520   0.991       .  S
Zr497      O2044   2.380       .  S
Zr497      O2073   2.401       .  S
Zr497       O500   2.255       .  S
Zr497       O502   2.393       .  S
Zr497      O2087   2.388       .  S
Zr498      O2053   2.394       .  S
Zr498      O2064   2.421       .  S
Zr498       O499   2.384       .  S
Zr498      O2085   2.393       .  S
Zr498       O504   2.396       .  S
O499      Zr2075   2.364       .  S
O499        H507   0.958       .  S
O500      Zr2075   2.280       .  S
O501      Zr2082   2.393       .  S
O502        H506   0.968       .  S
O503      Zr2081   2.388       .  S
O503        H508   0.970       .  S
O521       Zr533   2.476       .  S
O521        C523   1.293       .  A
O522       Zr559   2.380       .  S
O522        C523   1.275       .  A
C523        C757   1.430       .  S
O524       Zr536   2.489       .  S
O524        C526   1.293       .  A
O525      Zr1352   2.453       .  S
O525        C526   1.290       .  A
C526        C749   1.460       .  S
O527       Zr536   2.469       .  S
O527        C529   1.290       .  A
O528      Zr1351   2.420       .  S
O528        C529   1.284       .  A
C529        C760   1.447       .  S
O530       Zr533   2.483       .  S
O530        C532   1.293       .  A
O531       Zr560   2.388       .  S
O531        C532   1.277       .  A
C532        C751   1.432       .  S
Zr533       O534   2.437       .  S
Zr533       O535   2.434       .  S
Zr533       O539   2.277       .  S
Zr533       O540   2.377       .  S
Zr533       O563   2.390       .  S
Zr533       O565   2.384       .  S
O534        H577   0.990       .  S
O535        H576   0.991       .  S
O535        H580   0.990       .  S
Zr536       O537   2.440       .  S
Zr536       O538   2.434       .  S
Zr536      O1331   2.282   1_545  S
Zr536      O1332   2.360   1_545  S
Zr536       O564   2.382       .  S
Zr536       O566   2.384       .  S
O537        H578   0.990       .  S
O537        H581   0.991       .  S
O538        H571   0.990       .  S
O539      Zr1328   2.277       .  S
O539       Zr559   2.255       .  S
O540      Zr1328   2.354       .  S
O540       Zr560   2.394       .  S
O540        H567   0.962       .  S
O541       Zr553   2.496       .  S
O541        C543   1.295       .  A
O542       Zr560   2.448       .  S
O542        C543   1.289       .  A
C543        C745   1.462       .  S
O544       Zr556   2.477       .  S
O544        C546   1.292       .  A
O545      Zr1351   2.370       .  S
O545        C546   1.271       .  A
C546        C753   1.426       .  S
O547       Zr556   2.478       .  S
O547        C549   1.292       .  A
O548      Zr1352   2.384       .  S
O548        C549   1.277       .  A
C549        C748   1.427       .  S
O550       Zr553   2.468       .  S
O550        C552   1.290       .  A
O551       Zr559   2.418       .  S
O551        C552   1.283       .  A
C552        C755   1.446       .  S
Zr553       O554   2.438       .  S
Zr553       O555   2.433       .  S
Zr553       O561   2.363       .  S
Zr553       O562   2.372       .  S
Zr553       O565   2.394       .  S
Zr553       O563   2.391       .  S
O554        H574   0.990       .  S
O554        H579   0.990       .  S
O555        H575   0.990       .  S
Zr556       O557   2.435       .  S
Zr556       O558   2.433       .  S
Zr556      O1354   2.366       .  S
Zr556      O1353   2.374       .  S
Zr556       O566   2.397       .  S
Zr556       O564   2.391       .  S
O557        H573   0.991       .  S
O558        H572   0.991       .  S
O558        H582   0.990       .  S
Zr559      O1320   2.436       .  S
Zr559      O1337   2.388       .  S
Zr559       O562   2.370       .  S
Zr559      O1356   2.393       .  S
Zr559       O565   2.394       .  S
Zr560      O1317   2.415       .  S
Zr560      O1340   2.371       .  S
Zr560       O561   2.383       .  S
Zr560       O563   2.390       .  S
Zr560      O1358   2.394       .  S
O561      Zr1348   2.360       .  S
O561        H569   0.958       .  S
O562      Zr1348   2.376       .  S
O564      Zr1351   2.395       .  S
O564        H568   0.970       .  S
O565        H570   0.964       .  S
O566      Zr1352   2.391       .  S
C583        C584   1.437       .  A
C583        C588   1.444       .  A
C583        C667   1.522       .  S
C584        C585   1.426       .  A
C584        H589   1.083       .  S
C585        C792   1.457       .  S
C585        C586   1.378       .  A
C586        C587   1.377       .  A
C586        H590   1.089       .  S
C587        C774   1.466       .  S
C587        C588   1.430       .  A
C588        H591   1.082       .  S
C592        C593   1.410       .  A
C592        C597   1.401       .  A
C592        C666   1.469       .  S
C593        C594   1.406       .  A
C593        H598   1.077       .  S
C594        C771   1.434       .  S
C594        C595   1.387       .  A
C595        C596   1.387       .  A
C595        H599   1.087       .  S
C596        C785   1.422       .  S
C596        C597   1.395       .  A
C597        H600   1.078       .  S
C601        C602   1.436       .  A
C601        C606   1.424       .  A
C601        C703   1.521       .  S
C602        C603   1.402       .  A
C602        H607   1.083       .  S
C603        C756   1.447       .  S
C603        C604   1.375       .  A
C604        C605   1.385       .  A
C604        H608   1.089       .  S
C605        C762   1.441       .  S
C605        C606   1.424       .  A
C606        H609   1.083       .  S
C610        C611   1.420       .  A
C610        C615   1.414       .  A
C610        C701   1.493       .  S
C611        C612   1.416       .  A
C611        H616   1.077       .  S
C612        C770   1.444       .  S
C612        C613   1.383       .  A
C613        C614   1.380       .  A
C613        H617   1.088       .  S
C614        C747   1.431       .  S
C614        C615   1.406       .  A
C615        H618   1.084       .  S
C619        C620   1.409       .  A
C619        C624   1.439       .  A
C619        C669   1.505       .  S
C620        C621   1.406       .  A
C620        H625   1.083       .  S
C621        C775   1.420       .  S
C621        C622   1.384       .  A
C622        C623   1.376       .  A
C622        H626   1.089       .  S
C623        C750   1.458       .  S
C623        C624   1.417       .  A
C624        H627   1.083       .  S
C628        C629   1.421       .  A
C628        C633   1.434       .  A
C628        C668   1.514       .  S
C629        C630   1.418       .  A
C629        H634   1.083       .  S
C630        C789   1.437       .  S
C630        C631   1.385       .  A
C631        C632   1.378       .  A
C631        H635   1.088       .  S
C632        C759   1.448       .  S
C632        C633   1.406       .  A
C633        H636   1.083       .  S
C637        C638   1.430       .  A
C637        C642   1.411       .  A
C637        C699   1.495       .  S
C638        C639   1.421       .  A
C638        H643   1.079       .  S
C639        C768   1.455       .  S
C639        C640   1.384       .  A
C640        C641   1.382       .  A
C640        H644   1.088       .  S
C641        C758   1.430       .  S
C641        C642   1.404       .  A
C642        H645   1.084       .  S
C646        C647   1.412       .  A
C646        C651   1.430       .  A
C646        C702   1.498       .  S
C647        C648   1.404       .  A
C647        H652   1.084       .  S
C648        C754   1.427       .  S
C648        C649   1.381       .  A
C649        C650   1.382       .  A
C649        H653   1.089       .  S
C650        C787   1.456       .  S
C650        C651   1.421       .  A
C651        H654   1.078       .  S
O655       Zr691   2.476       .  S
O655        C666   1.301       .  A
O656      Zr3066   2.675   1_445  S
O656        C667   1.343       .  A
O657       Zr663   2.549       .  S
O657        C668   1.310       .  A
O658       Zr663   2.553   1_655  S
O658       C2253   1.313       .  A
O659        C669   1.279       .  A
O660        C668   1.282       .  A
O661       Zr663   2.297       .  S
O661        C667   1.267       .  A
O662        C666   1.292       .  A
Zr663      O2248   2.342   1_455  S
Zr663       O671   2.345       .  S
O664      Zr2247   2.342       .  S
O664      Zr1482   2.336   1_545  S
O665       Zr691   2.383       .  S
O665       Zr692   2.327   1_545  S
C669       O2242   1.313       .  A
H670        O671   0.964       .  S
O671      Zr3066   2.333   1_445  S
H672       O2257   0.964       .  S
O673       Zr691   2.391   1_655  S
O673      Zr2277   2.330   1_545  S
O673       H2256   0.964       .  S
O674       Zr690   2.464       .  S
O674        C697   1.299       .  A
O675      Zr3067   2.660       .  S
O675        C698   1.340       .  A
O676      Zr1088   2.434   1_556  S
O676        C699   1.290       .  A
O677      Zr1089   2.447   1_556  S
O677        C700   1.293       .  A
O678       Zr693   2.446   1_545  S
O678        C701   1.293       .  A
O679       Zr692   2.448   1_545  S
O679        C702   1.292       .  A
O680      Zr2278   2.565   1_455  S
O680        C703   1.313       .  A
O681       Zr694   2.570       .  S
O681        C704   1.316       .  A
O682      Zr1484   2.386       .  S
O682        C703   1.281       .  A
O683      Zr1485   2.379       .  S
O683        C704   1.279       .  A
O684      Zr2274   2.514   1_455  S
O684        C699   1.307       .  A
O685       Zr691   2.506       .  S
O685        C702   1.305       .  A
O686      Zr2275   2.494       .  S
O686        C701   1.303       .  A
O687       Zr690   2.539       .  S
O687        C700   1.311       .  A
O688        C697   1.292       .  A
O689       Zr694   2.303       .  S
O689        C698   1.269       .  A
Zr690      O3032   2.665       .  S
Zr690      O2268   2.514       .  S
Zr690      O1456   2.341       .  S
Zr690      O3047   2.333       .  S
Zr690      O2280   2.387       .  S
Zr690       O708   2.384       .  S
Zr691      O3051   2.673   1_445  S
Zr691      O2270   2.494   1_455  S
Zr691      O3071   2.339   1_445  S
Zr691      O1498   2.321   1_545  S
Zr692      O1072   2.434       .  S
Zr692      O1474   2.388       .  S
Zr692      O1092   2.330   1_455  S
Zr692      O1498   2.338       .  S
Zr693      O1073   2.447       .  S
Zr693      O1475   2.371       .  S
Zr693      O2257   2.330   1_565  S
Zr693      O1487   2.339       .  S
Zr693      O1104   2.335       .  S
Zr694      O2264   2.565       .  S
Zr694       O695   2.341       .  S
Zr694      O1884   2.348       .  S
Zr694      O2290   2.352       .  S
O695      Zr3067   2.341       .  S
O695      Zr1485   2.338       .  S
O696      Zr2274   2.387       .  S
O696      Zr1088   2.330   1_656  S
O696      Zr1882   2.337   1_556  S
C697        C736   1.467       .  S
C698        C727   1.517       .  S
C700        C718   1.515       .  S
C704        C709   1.516       .  S
H705        O706   0.963       .  S
O706      Zr1483   2.333       .  S
O706      Zr1484   2.341       .  S
O706      Zr2278   2.352   1_455  S
H707        O708   0.963       .  S
O708      Zr1089   2.335   1_556  S
C709        C710   1.444       .  A
C709        C714   1.416       .  A
C710        C711   1.417       .  A
C710        H715   1.083       .  S
C711        C746   1.459       .  S
C711        C712   1.370       .  A
C712        C713   1.381       .  A
C712        H716   1.090       .  S
C713        C784   1.424       .  S
C713        C714   1.412       .  A
C714        H717   1.083       .  S
C718        C719   1.419       .  A
C718        C723   1.432       .  A
C719        C720   1.410       .  A
C719        H724   1.084       .  S
C720        C752   1.435       .  S
C720        C721   1.381       .  A
C721        C722   1.381       .  A
C721        H725   1.089       .  S
C722        C778   1.460       .  S
C722        C723   1.428       .  A
C723        H726   1.078       .  S
C727        C728   1.437       .  A
C727        C732   1.439       .  A
C728        C729   1.426       .  A
C728        H733   1.083       .  S
C729        C764   1.459       .  S
C729        C730   1.379       .  A
C730        C731   1.378       .  A
C730        H734   1.089       .  S
C731        C781   1.463       .  S
C731        C732   1.426       .  A
C732        H735   1.082       .  S
C736        C737   1.407       .  A
C736        C741   1.406       .  A
C737        C738   1.402       .  A
C737        H742   1.080       .  S
C738        C780   1.425       .  S
C738        C739   1.384       .  A
C739        C740   1.383       .  A
C739        H743   1.088       .  S
C740        C765   1.425       .  S
C740        C741   1.400       .  A
C741        H744   1.079       .  S
C745        C746   1.222       .  T
C747        C748   1.203       .  T
C749        C750   1.221       .  T
C751        C752   1.206       .  T
C753        C754   1.201       .  T
C755        C756   1.212       .  T
C757        C758   1.203       .  T
C759        C760   1.213       .  T
C761        C762   1.212       .  T
C763        C764   1.222       .  T
C765        C766   1.200       .  T
C767        C768   1.219       .  T
C769        C770   1.212       .  T
C771        C772   1.204       .  T
C773        C774   1.226       .  T
C775        C776   1.199       .  T
C777        C778   1.222       .  T
C779        C780   1.199       .  T
C781        C782   1.224       .  T
C783        C784   1.204       .  T
C785        C786   1.196       .  T
C787        C788   1.220       .  T
C789        C790   1.209       .  T
C791        C792   1.221       .  T
O793       Zr805   2.452       .  S
O793        C795   1.286       .  A
O794       Zr831   2.416       .  S
O794        C795   1.281       .  A
C795       C1186   1.439       .  S
O796       Zr808   2.551       .  S
O796        C798   1.307       .  A
O797       Zr832   2.376       .  S
O797        C798   1.275       .  A
C798       C1173   1.457       .  S
O799       Zr808   2.527       .  S
O799        C801   1.304       .  A
O800       Zr831   2.380       .  S
O800        C801   1.276       .  A
C801       C1187   1.457       .  S
O802       Zr805   2.465       .  S
O802        C804   1.289       .  A
O803       Zr832   2.394       .  S
O803        C804   1.278       .  A
C804       C1175   1.424       .  S
Zr805       O806   2.438       .  S
Zr805       O807   2.435       .  S
Zr805       O811   2.270       .  S
Zr805       O812   2.363       .  S
Zr805       O835   2.387       .  S
Zr805       O837   2.390       .  S
O806        H849   0.990       .  S
O807        H848   0.990       .  S
O807        H852   0.990       .  S
Zr808       O809   2.436       .  S
Zr808       O810   2.435       .  S
Zr808       O811   2.280       .  S
Zr808       O812   2.362       .  S
Zr808       O836   2.401       .  S
Zr808       O838   2.399       .  S
O809        H850   0.990       .  S
O809        H853   0.990       .  S
O810        H843   0.990       .  S
O811       Zr831   2.248       .  S
O812       Zr832   2.388       .  S
O812        H839   0.961       .  S
O813       Zr825   2.559       .  S
O813        C815   1.308       .  A
O814       Zr832   2.375       .  S
O814        C815   1.275       .  A
C815       C1178   1.461       .  S
O816       Zr828   2.433       .  S
O816        C818   1.283       .  A
O817       Zr831   2.396       .  S
O817        C818   1.278       .  A
C818       C1182   1.421       .  S
O819       Zr828   2.452       .  S
O819        C821   1.286       .  A
O820       Zr832   2.411       .  S
O820        C821   1.279       .  A
C821       C1179   1.429       .  S
O822       Zr825   2.505       .  S
O822        C824   1.296       .  A
O823       Zr831   2.392       .  S
O823        C824   1.277       .  A
C824       C1184   1.455       .  S
Zr825       O826   2.438       .  S
Zr825       O827   2.434       .  S
Zr825       O834   2.296       .  S
Zr825       O833   2.335       .  S
Zr825       O837   2.403       .  S
Zr825       O835   2.394       .  S
O826        H846   0.990       .  S
O826        H851   0.991       .  S
O827        H847   0.990       .  S
Zr828       O829   2.439       .  S
Zr828       O830   2.435       .  S
Zr828       O834   2.286       .  S
Zr828       O833   2.373       .  S
Zr828       O838   2.382       .  S
Zr828       O836   2.383       .  S
O829        H845   0.990       .  S
O830        H844   0.990       .  S
O830        H854   0.990       .  S
Zr831       O834   2.256       .  S
Zr831       O836   2.394       .  S
Zr831       O837   2.391       .  S
Zr832       O833   2.383       .  S
Zr832       O835   2.390       .  S
Zr832       O838   2.390       .  S
O833        H841   0.959       .  S
O836        H840   0.969       .  S
O837        H842   0.968       .  S
O855       Zr867   2.538       .  S
O855        C857   1.305       .  A
O856      Zr2477   2.380       .  S
O856        C857   1.274       .  A
C857       C1169   1.465       .  S
O858       Zr870   2.466       .  S
O858        C860   1.289       .  A
O859       Zr894   2.396       .  S
O859        C860   1.278       .  A
C860       C1162   1.425       .  S
O861       Zr870   2.424       .  S
O861        C863   1.280       .  A
O862       Zr893   2.416       .  S
O862        C863   1.282       .  A
C863       C1172   1.423       .  S
O864       Zr867   2.524       .  S
O864        C866   1.301       .  A
O865      Zr2478   2.394       .  S
O865        C866   1.280       .  A
C866       C1163   1.453       .  S
Zr867       O868   2.435       .  S
Zr867       O869   2.435       .  S
Zr867      O2457   2.275   1_455  S
Zr867      O2458   2.376       .  S
Zr867       O897   2.410       .  S
Zr867       O899   2.396       .  S
O868        H911   0.990       .  S
O869        H910   0.990       .  S
O869        H914   0.990       .  S
Zr870       O871   2.441       .  S
Zr870       O872   2.437       .  S
Zr870       O873   2.281       .  S
Zr870       O874   2.356       .  S
Zr870       O898   2.386       .  S
Zr870       O900   2.378       .  S
O871        H912   0.990       .  S
O871        H915   0.991       .  S
O872        H905   0.991       .  S
O873      Zr2451   2.275       .  S
O873       Zr893   2.244       .  S
O874      Zr2451   2.376       .  S
O874       Zr894   2.387       .  S
O874        H901   0.961       .  S
O875       Zr887   2.480       .  S
O875        C877   1.293       .  A
O876      Zr2478   2.421       .  S
O876        C877   1.283       .  A
C877       C1157   1.442       .  S
O878       Zr890   2.502       .  S
O878        C880   1.297       .  A
O879       Zr893   2.373       .  S
O879        C880   1.274       .  A
C880       C1165   1.442       .  S
O881       Zr890   2.546       .  S
O881        C883   1.306       .  A
O882       Zr894   2.378       .  S
O882        C883   1.276       .  A
C883       C1159   1.457       .  S
O884       Zr887   2.455       .  S
O884        C886   1.287       .  A
O885      Zr2477   2.401       .  S
O885        C886   1.279       .  A
C886       C1168   1.433       .  S
Zr887       O888   2.441       .  S
Zr887       O889   2.434       .  S
Zr887      O2480   2.280       .  S
Zr887      O2479   2.364       .  S
Zr887       O899   2.391       .  S
Zr887       O897   2.391       .  S
O888        H908   0.990       .  S
O888        H913   0.991       .  S
O889        H909   0.990       .  S
Zr890       O891   2.436       .  S
Zr890       O892   2.435       .  S
Zr890       O896   2.290       .  S
Zr890       O895   2.337       .  S
Zr890       O900   2.395       .  S
Zr890       O898   2.394       .  S
O891        H907   0.990       .  S
O892        H906   0.990       .  S
O892        H916   0.991       .  S
Zr893      O2440   2.380       .  S
Zr893      O2469   2.402       .  S
Zr893       O896   2.255       .  S
Zr893       O898   2.393       .  S
Zr893      O2483   2.388       .  S
Zr894      O2449   2.394       .  S
Zr894      O2460   2.421       .  S
Zr894       O895   2.384       .  S
Zr894      O2481   2.393       .  S
Zr894       O900   2.396       .  S
O895      Zr2471   2.364       .  S
O895        H903   0.958       .  S
O896      Zr2471   2.280       .  S
O897      Zr2478   2.393       .  S
O898        H902   0.968       .  S
O899      Zr2477   2.388       .  S
O899        H904   0.969       .  S
O917       Zr929   2.476       .  S
O917        C919   1.293       .  A
O918       Zr955   2.380   1_565  S
O918        C919   1.275       .  A
C919       C1153   1.430       .  S
O920       Zr932   2.488       .  S
O920        C922   1.293       .  A
O921        C922   1.290       .  A
C922       C1145   1.460       .  S
O923       Zr932   2.469       .  S
O923        C925   1.290       .  A
O924        C925   1.284       .  A
C925       C1156   1.447       .  S
O926       Zr929   2.483       .  S
O926        C928   1.293       .  A
O927       Zr956   2.388       .  S
O927        C928   1.277       .  A
C928       C1147   1.432       .  S
Zr929       O930   2.437       .  S
Zr929       O931   2.434       .  S
Zr929       O935   2.277       .  S
Zr929       O936   2.377       .  S
Zr929       O959   2.390       .  S
Zr929       O961   2.384       .  S
O930        H973   0.990       .  S
O931        H972   0.991       .  S
O931        H976   0.990       .  S
Zr932       O933   2.440       .  S
Zr932       O934   2.434       .  S
Zr932       O960   2.382       .  S
Zr932       O962   2.384       .  S
O933        H974   0.990       .  S
O933        H977   0.991       .  S
O934        H967   0.990       .  S
O935       Zr955   2.255   1_565  S
O936       Zr956   2.394       .  S
O936        H963   0.962       .  S
O937       Zr949   2.496       .  S
O937        C939   1.295       .  A
O938       Zr956   2.448       .  S
O938        C939   1.289       .  A
C939       C1141   1.462       .  S
O940       Zr952   2.477       .  S
O940        C942   1.292       .  A
O941        C942   1.271       .  A
C942       C1149   1.426       .  S
O943       Zr952   2.478       .  S
O943        C945   1.292       .  A
O944        C945   1.277       .  A
C945       C1144   1.427       .  S
O946       Zr949   2.468       .  S
O946        C948   1.290       .  A
O947       Zr955   2.419   1_565  S
O947        C948   1.283       .  A
C948       C1151   1.446       .  S
Zr949       O950   2.438       .  S
Zr949       O951   2.433       .  S
Zr949       O957   2.363   1_565  S
Zr949       O958   2.372   1_565  S
Zr949       O961   2.394       .  S
Zr949       O959   2.391       .  S
O950        H970   0.990       .  S
O950        H975   0.990       .  S
O951        H971   0.990       .  S
Zr952       O953   2.435       .  S
Zr952       O954   2.433       .  S
Zr952       O962   2.397       .  S
Zr952       O960   2.391       .  S
O953        H969   0.991       .  S
O954        H968   0.991       .  S
O954        H978   0.990       .  S
Zr955       O958   2.370       .  S
Zr955       O961   2.394   1_545  S
Zr956       O957   2.383   1_565  S
Zr956       O959   2.390       .  S
O957        H965   0.958       .  S
O960        H964   0.970       .  S
O961        H966   0.964       .  S
C979        C980   1.437       .  A
C979        C984   1.444       .  A
C979       C1063   1.522       .  S
C980        C981   1.426       .  A
C980        H985   1.083       .  S
C981       C1188   1.457       .  S
C981        C982   1.378       .  A
C982        C983   1.377       .  A
C982        H986   1.089       .  S
C983       C1170   1.466       .  S
C983        C984   1.430       .  A
C984        H987   1.082       .  S
C988        C989   1.410       .  A
C988        C993   1.401       .  A
C988       C1062   1.469       .  S
C989        C990   1.406       .  A
C989        H994   1.077       .  S
C990       C1167   1.434       .  S
C990        C991   1.387       .  A
C991        C992   1.387       .  A
C991        H995   1.087       .  S
C992       C1181   1.422       .  S
C992        C993   1.395       .  A
C993        H996   1.078       .  S
C997        C998   1.436       .  A
C997       C1002   1.424       .  A
C997       C1099   1.521       .  S
C998        C999   1.402       .  A
C998       H1003   1.083       .  S
C999       C1152   1.447       .  S
C999       C1000   1.375       .  A
C1000      C1001   1.385       .  A
C1000      H1004   1.089       .  S
C1001      C1158   1.441       .  S
C1001      C1002   1.424       .  A
C1002      H1005   1.083       .  S
C1006      C1007   1.420       .  A
C1006      C1011   1.414       .  A
C1006      C1097   1.493       .  S
C1007      C1008   1.416       .  A
C1007      H1012   1.077       .  S
C1008      C1166   1.444       .  S
C1008      C1009   1.383       .  A
C1009      C1010   1.380       .  A
C1009      H1013   1.088       .  S
C1010      C1143   1.431       .  S
C1010      C1011   1.406       .  A
C1011      H1014   1.084       .  S
C1015      C1016   1.409       .  A
C1015      C1020   1.439       .  A
C1015      C1065   1.505       .  S
C1016      C1017   1.406       .  A
C1016      H1021   1.083       .  S
C1017      C1171   1.420       .  S
C1017      C1018   1.384       .  A
C1018      C1019   1.376       .  A
C1018      H1022   1.089       .  S
C1019      C1146   1.458       .  S
C1019      C1020   1.417       .  A
C1020      H1023   1.083       .  S
C1024      C1025   1.421       .  A
C1024      C1029   1.434       .  A
C1024      C1064   1.514       .  S
C1025      C1026   1.418       .  A
C1025      H1030   1.083       .  S
C1026      C1185   1.437       .  S
C1026      C1027   1.385       .  A
C1027      C1028   1.378       .  A
C1027      H1031   1.088       .  S
C1028      C1155   1.448       .  S
C1028      C1029   1.406       .  A
C1029      H1032   1.083       .  S
C1033      C1034   1.430       .  A
C1033      C1038   1.411       .  A
C1033      C1095   1.495       .  S
C1034      C1035   1.421       .  A
C1034      H1039   1.079       .  S
C1035      C1164   1.455       .  S
C1035      C1036   1.384       .  A
C1036      C1037   1.382       .  A
C1036      H1040   1.088       .  S
C1037      C1154   1.430       .  S
C1037      C1038   1.404       .  A
C1038      H1041   1.084       .  S
C1042      C1043   1.412       .  A
C1042      C1047   1.430       .  A
C1042      C1098   1.498       .  S
C1043      C1044   1.404       .  A
C1043      H1048   1.084       .  S
C1044      C1150   1.427       .  S
C1044      C1045   1.381       .  A
C1045      C1046   1.382       .  A
C1045      H1049   1.089       .  S
C1046      C1183   1.456       .  S
C1046      C1047   1.421       .  A
C1047      H1050   1.078       .  S
O1051     Zr1087   2.476       .  S
O1051      C1062   1.301       .  A
O1052     Zr1878   2.675   1_455  S
O1052      C1063   1.343       .  A
O1053     Zr1059   2.549       .  S
O1053      C1064   1.310       .  A
O1054     Zr1059   2.553   1_655  S
O1054      C2649   1.313       .  A
O1055     Zr1485   2.378       .  S
O1055      C1065   1.279       .  A
O1056     Zr1484   2.391       .  S
O1056      C1064   1.282       .  A
O1057     Zr1059   2.297       .  S
O1057      C1063   1.267       .  A
O1058     Zr1455   2.431   1_554  S
O1058      C1062   1.292       .  A
Zr1059     O1454   2.420       .  S
Zr1059     O2644   2.342   1_455  S
Zr1059     O1457   2.336       .  S
Zr1059     O1465   2.336   1_455  S
Zr1059     O1067   2.345       .  S
O1060     Zr2643   2.342       .  S
O1060     Zr1485   2.339       .  S
O1061     Zr1455   2.345   1_554  S
O1061     Zr1087   2.383       .  S
O1061     Zr1088   2.327       .  S
C1065      O2638   1.313       .  A
H1066      O1067   0.964       .  S
O1067     Zr1878   2.333   1_455  S
O1067     Zr1484   2.341       .  S
H1068      O2653   0.965       .  S
O1069     Zr1455   2.341   1_654  S
O1069     Zr1087   2.391   1_655  S
O1069     Zr2673   2.330       .  S
O1069      H2652   0.964       .  S
O1070     Zr1086   2.464       .  S
O1070      C1093   1.299       .  A
O1071     Zr1879   2.660   1_565  S
O1071      C1094   1.340       .  A
O1072      C1095   1.290       .  A
O1073      C1096   1.293       .  A
O1074     Zr1089   2.446       .  S
O1074      C1097   1.293       .  A
O1075     Zr1088   2.448       .  S
O1075      C1098   1.292       .  A
O1076     Zr2674   2.565   1_455  S
O1076      C1099   1.313       .  A
O1077     Zr1090   2.570       .  S
O1077      C1100   1.316       .  A
O1078      C1099   1.281       .  A
O1079      C1100   1.279       .  A
O1080     Zr2670   2.514   1_455  S
O1080      C1095   1.307       .  A
O1081     Zr1087   2.505       .  S
O1081      C1098   1.305       .  A
O1082     Zr2671   2.494       .  S
O1082      C1097   1.303       .  A
O1083     Zr1086   2.539       .  S
O1083      C1096   1.311       .  A
O1084     Zr1486   2.433       .  S
O1084      C1093   1.292       .  A
O1085     Zr1090   2.303       .  S
O1085      C1094   1.269       .  A
Zr1086     O1844   2.665   1_565  S
Zr1086     O2664   2.514       .  S
Zr1086     O1859   2.333   1_565  S
Zr1086     O2676   2.387       .  S
Zr1086     O1104   2.384       .  S
Zr1087     O1863   2.672   1_455  S
Zr1087     O2666   2.494   1_455  S
Zr1087     O1883   2.339   1_455  S
Zr1088     O1452   2.378   1_554  S
Zr1088     O1463   2.347   1_554  S
Zr1089     O1451   2.392   1_554  S
Zr1089     O1456   2.334   1_554  S
Zr1089     O2653   2.330       .  S
Zr1090     O2660   2.565       .  S
Zr1090     O1480   2.436   1_554  S
Zr1090     O1091   2.341       .  S
Zr1090     O3072   2.348   1_554  S
Zr1090     O1500   2.345   1_554  S
Zr1090     O2686   2.352       .  S
O1091     Zr1879   2.341   1_565  S
O1092     Zr2670   2.387       .  S
O1092     Zr3070   2.337       .  S
C1093      C1132   1.467       .  S
C1094      C1123   1.517       .  S
C1096      C1114   1.515       .  S
C1100      C1105   1.516       .  S
H1101      O1102   0.963       .  S
O1102     Zr2674   2.352   1_455  S
H1103      O1104   0.962       .  S
O1104     Zr1486   2.344       .  S
C1105      C1106   1.444       .  A
C1105      C1110   1.416       .  A
C1106      C1107   1.417       .  A
C1106      H1111   1.083       .  S
C1107      C1142   1.459       .  S
C1107      C1108   1.370       .  A
C1108      C1109   1.381       .  A
C1108      H1112   1.090       .  S
C1109      C1180   1.424       .  S
C1109      C1110   1.412       .  A
C1110      H1113   1.083       .  S
C1114      C1115   1.419       .  A
C1114      C1119   1.432       .  A
C1115      C1116   1.410       .  A
C1115      H1120   1.084       .  S
C1116      C1148   1.435       .  S
C1116      C1117   1.381       .  A
C1117      C1118   1.381       .  A
C1117      H1121   1.089       .  S
C1118      C1174   1.460       .  S
C1118      C1119   1.428       .  A
C1119      H1122   1.078       .  S
C1123      C1124   1.437       .  A
C1123      C1128   1.439       .  A
C1124      C1125   1.426       .  A
C1124      H1129   1.083       .  S
C1125      C1160   1.459       .  S
C1125      C1126   1.379       .  A
C1126      C1127   1.378       .  A
C1126      H1130   1.089       .  S
C1127      C1177   1.463       .  S
C1127      C1128   1.426       .  A
C1128      H1131   1.082       .  S
C1132      C1133   1.407       .  A
C1132      C1137   1.406       .  A
C1133      C1134   1.402       .  A
C1133      H1138   1.080       .  S
C1134      C1176   1.425       .  S
C1134      C1135   1.384       .  A
C1135      C1136   1.383       .  A
C1135      H1139   1.088       .  S
C1136      C1161   1.425       .  S
C1136      C1137   1.400       .  A
C1137      H1140   1.079       .  S
C1141      C1142   1.222       .  T
C1143      C1144   1.203       .  T
C1145      C1146   1.221       .  T
C1147      C1148   1.206       .  T
C1149      C1150   1.201       .  T
C1151      C1152   1.212       .  T
C1153      C1154   1.203       .  T
C1155      C1156   1.213       .  T
C1157      C1158   1.212       .  T
C1159      C1160   1.222       .  T
C1161      C1162   1.200       .  T
C1163      C1164   1.219       .  T
C1165      C1166   1.212       .  T
C1167      C1168   1.204       .  T
C1169      C1170   1.226       .  T
C1171      C1172   1.199       .  T
C1173      C1174   1.222       .  T
C1175      C1176   1.199       .  T
C1177      C1178   1.224       .  T
C1179      C1180   1.204       .  T
C1181      C1182   1.196       .  T
C1183      C1184   1.220       .  T
C1185      C1186   1.209       .  T
C1187      C1188   1.221       .  T
O1189     Zr1201   2.419       .  S
O1189      C1191   1.278       .  A
O1190     Zr1227   2.411       .  S
O1190      C1191   1.280       .  A
C1191      C1582   1.420       .  S
O1192     Zr1204   2.540       .  S
O1192      C1194   1.303       .  A
O1193     Zr1228   2.387       .  S
O1193      C1194   1.277       .  A
C1194      C1569   1.458       .  S
O1195     Zr1204   2.542       .  S
O1195      C1197   1.306       .  A
O1196     Zr1227   2.385       .  S
O1196      C1197   1.276       .  A
C1197      C1583   1.468       .  S
O1198     Zr1201   2.455       .  S
O1198      C1200   1.286       .  A
O1199     Zr1228   2.400       .  S
O1199      C1200   1.279       .  A
C1200      C1571   1.423       .  S
Zr1201     O1202   2.438       .  S
Zr1201     O1203   2.436       .  S
Zr1201     O1207   2.281       .  S
Zr1201     O1208   2.354       .  S
Zr1201     O1231   2.379       .  S
Zr1201     O1233   2.385       .  S
O1202      H1245   0.990       .  S
O1203      H1244   0.991       .  S
O1203      H1248   0.990       .  S
Zr1204     O1205   2.438       .  S
Zr1204     O1206   2.435       .  S
Zr1204     O1207   2.278       .  S
Zr1204     O1208   2.375       .  S
Zr1204     O1232   2.396       .  S
Zr1204     O1234   2.407       .  S
O1205      H1246   0.990       .  S
O1205      H1249   0.991       .  S
O1206      H1239   0.990       .  S
O1207     Zr1227   2.245       .  S
O1208     Zr1228   2.383       .  S
O1208      H1235   0.961       .  S
O1209     Zr1221   2.560       .  S
O1209      C1211   1.309       .  A
O1210     Zr1228   2.377       .  S
O1210      C1211   1.275       .  A
C1211      C1574   1.460       .  S
O1212     Zr1224   2.446       .  S
O1212      C1214   1.285       .  A
O1213     Zr1227   2.401       .  S
O1213      C1214   1.279       .  A
C1214      C1578   1.428       .  S
O1215     Zr1224   2.470       .  S
O1215      C1217   1.290       .  A
O1216     Zr1228   2.406       .  S
O1216      C1217   1.279       .  A
C1217      C1575   1.433       .  S
O1218     Zr1221   2.520       .  S
O1218      C1220   1.301       .  A
O1219     Zr1227   2.370       .  S
O1219      C1220   1.272       .  A
C1220      C1580   1.450       .  S
Zr1221     O1222   2.438       .  S
Zr1221     O1223   2.435       .  S
Zr1221     O1230   2.291       .  S
Zr1221     O1229   2.339       .  S
Zr1221     O1233   2.396       .  S
Zr1221     O1231   2.398       .  S
O1222      H1242   0.990       .  S
O1222      H1247   0.991       .  S
O1223      H1243   0.990       .  S
Zr1224     O1225   2.438       .  S
Zr1224     O1226   2.433       .  S
Zr1224     O1230   2.280       .  S
Zr1224     O1229   2.359       .  S
Zr1224     O1234   2.392       .  S
Zr1224     O1232   2.390       .  S
O1225      H1241   0.990       .  S
O1226      H1240   0.990       .  S
O1226      H1250   0.991       .  S
Zr1227     O1230   2.260       .  S
Zr1227     O1232   2.387       .  S
Zr1227     O1233   2.394       .  S
Zr1228     O1229   2.387       .  S
Zr1228     O1231   2.394       .  S
Zr1228     O1234   2.394       .  S
O1229      H1237   0.959       .  S
O1232      H1236   0.968       .  S
O1233      H1238   0.968       .  S
O1251     Zr1263   2.526       .  S
O1251      C1253   1.303       .  A
O1252     Zr2873   2.377   1_455  S
O1252      C1253   1.275       .  A
C1253      C1565   1.455       .  S
O1254     Zr1266   2.469       .  S
O1254      C1256   1.289       .  A
O1255     Zr1290   2.392       .  S
O1255      C1256   1.277       .  A
C1256      C1558   1.424       .  S
O1257     Zr1266   2.453       .  S
O1257      C1259   1.286       .  A
O1258     Zr1289   2.418       .  S
O1258      C1259   1.281       .  A
C1259      C1568   1.441       .  S
O1260     Zr1263   2.533       .  S
O1260      C1262   1.303       .  A
O1261     Zr2874   2.376       .  S
O1261      C1262   1.275       .  A
C1262      C1559   1.450       .  S
Zr1263     O1264   2.436       .  S
Zr1263     O1265   2.434       .  S
Zr1263     O2853   2.280   1_455  S
Zr1263     O2854   2.368   1_455  S
Zr1263     O1293   2.401       .  S
Zr1263     O1295   2.396       .  S
O1264      H1307   0.990       .  S
O1265      H1306   0.990       .  S
O1265      H1310   0.991       .  S
Zr1266     O1267   2.441       .  S
Zr1266     O1268   2.436       .  S
Zr1266     O1269   2.274       .  S
Zr1266     O1270   2.362       .  S
Zr1266     O1294   2.391       .  S
Zr1266     O1296   2.389       .  S
O1267      H1308   0.990       .  S
O1267      H1311   0.991       .  S
O1268      H1301   0.991       .  S
O1269     Zr2847   2.280       .  S
O1269     Zr1289   2.248       .  S
O1270     Zr2847   2.368       .  S
O1270     Zr1290   2.390       .  S
O1270      H1297   0.962       .  S
O1271     Zr1283   2.460       .  S
O1271      C1273   1.287       .  A
O1272     Zr2874   2.413       .  S
O1272      C1273   1.281       .  A
C1273      C1553   1.430       .  S
O1274     Zr1286   2.510       .  S
O1274      C1276   1.297       .  A
O1275     Zr1289   2.391       .  S
O1275      C1276   1.277       .  A
C1276      C1561   1.457       .  S
O1277     Zr1286   2.560       .  S
O1277      C1279   1.309       .  A
O1278     Zr1290   2.373       .  S
O1278      C1279   1.274       .  A
C1279      C1555   1.462       .  S
O1280     Zr1283   2.431       .  S
O1280      C1282   1.282       .  A
O1281     Zr2873   2.393   1_455  S
O1281      C1282   1.277       .  A
C1282      C1564   1.418       .  S
Zr1283     O1284   2.441       .  S
Zr1283     O1285   2.435       .  S
Zr1283     O2876   2.284   1_455  S
Zr1283     O2875   2.368       .  S
Zr1283     O1295   2.385       .  S
Zr1283     O1293   2.383       .  S
O1284      H1304   0.990       .  S
O1284      H1309   0.990       .  S
O1285      H1305   0.990       .  S
Zr1286     O1287   2.436       .  S
Zr1286     O1288   2.433       .  S
Zr1286     O1292   2.293       .  S
Zr1286     O1291   2.334       .  S
Zr1286     O1296   2.395       .  S
Zr1286     O1294   2.402       .  S
O1287      H1303   0.990       .  S
O1288      H1302   0.990       .  S
O1288      H1312   0.990       .  S
Zr1289     O2836   2.377       .  S
Zr1289     O2865   2.393       .  S
Zr1289     O1292   2.256       .  S
Zr1289     O1294   2.390       .  S
Zr1289     O2879   2.394       .  S
Zr1290     O2845   2.376       .  S
Zr1290     O2856   2.413       .  S
Zr1290     O1291   2.381       .  S
Zr1290     O2877   2.391       .  S
Zr1290     O1296   2.393       .  S
O1291     Zr2867   2.368       .  S
O1291      H1299   0.959       .  S
O1292     Zr2867   2.284       .  S
O1293     Zr2874   2.391       .  S
O1294      H1298   0.966       .  S
O1295     Zr2873   2.394   1_455  S
O1295      H1300   0.970       .  S
O1313     Zr1325   2.461       .  S
O1313      C1315   1.288       .  A
O1314     Zr1351   2.380   1_565  S
O1314      C1315   1.276       .  A
C1315      C1549   1.425       .  S
O1316     Zr1328   2.496       .  S
O1316      C1318   1.295       .  A
O1317      C1318   1.283       .  A
C1318      C1541   1.449       .  S
O1319     Zr1328   2.468       .  S
O1319      C1321   1.290       .  A
O1320      C1321   1.287       .  A
C1321      C1552   1.454       .  S
O1322     Zr1325   2.489       .  S
O1322      C1324   1.295       .  A
O1323     Zr1352   2.371   1_565  S
O1323      C1324   1.274       .  A
C1324      C1543   1.426       .  S
Zr1325     O1326   2.437       .  S
Zr1325     O1327   2.436       .  S
Zr1325     O1331   2.282       .  S
Zr1325     O1332   2.359       .  S
Zr1325     O1355   2.378       .  S
Zr1325     O1357   2.390       .  S
O1326      H1369   0.990       .  S
O1327      H1368   0.990       .  S
O1327      H1372   0.990       .  S
Zr1328     O1329   2.440       .  S
Zr1328     O1330   2.436       .  S
Zr1328     O1356   2.387       .  S
Zr1328     O1358   2.383       .  S
O1329      H1370   0.990       .  S
O1329      H1373   0.991       .  S
O1330      H1363   0.990       .  S
O1331     Zr1351   2.257   1_565  S
O1332     Zr1352   2.389   1_565  S
O1332      H1359   0.960       .  S
O1333     Zr1345   2.488       .  S
O1333      C1335   1.294       .  A
O1334     Zr1352   2.428   1_565  S
O1334      C1335   1.285       .  A
C1335      C1537   1.451       .  S
O1336     Zr1348   2.478       .  S
O1336      C1338   1.291       .  A
O1337      C1338   1.276       .  A
C1338      C1545   1.434       .  S
O1339     Zr1348   2.498       .  S
O1339      C1341   1.297       .  A
O1340      C1341   1.274       .  A
C1341      C1540   1.429       .  S
O1342     Zr1345   2.475       .  S
O1342      C1344   1.291       .  A
O1343     Zr1351   2.445   1_565  S
O1343      C1344   1.288       .  A
C1344      C1547   1.460       .  S
Zr1345     O1346   2.439       .  S
Zr1345     O1347   2.433       .  S
Zr1345     O1353   2.363   1_565  S
Zr1345     O1354   2.365   1_565  S
Zr1345     O1357   2.391       .  S
Zr1345     O1355   2.394       .  S
O1346      H1366   0.990       .  S
O1346      H1371   0.990       .  S
O1347      H1367   0.990       .  S
Zr1348     O1349   2.435       .  S
Zr1348     O1350   2.433       .  S
Zr1348     O1358   2.387       .  S
Zr1348     O1356   2.396       .  S
O1349      H1365   0.990       .  S
O1350      H1364   0.991       .  S
O1350      H1374   0.990       .  S
Zr1351     O1354   2.366       .  S
Zr1351     O1357   2.392   1_545  S
Zr1352     O1353   2.388       .  S
Zr1352     O1355   2.394   1_545  S
O1353      H1361   0.962       .  S
O1356      H1360   0.969       .  S
O1357      H1362   0.965       .  S
C1375      C1376   1.444       .  A
C1375      C1380   1.434       .  A
C1375      C1459   1.520       .  S
C1376      C1377   1.430       .  A
C1376      H1381   1.083       .  S
C1377      C1584   1.469       .  S
C1377      C1378   1.378       .  A
C1378      C1379   1.381       .  A
C1378      H1382   1.089       .  S
C1379      C1566   1.456       .  S
C1379      C1380   1.424       .  A
C1380      H1383   1.083   1_455  S
C1384      C1385   1.400       .  A
C1384      C1389   1.406       .  A
C1384      C1458   1.463       .  S
C1385      C1386   1.395       .  A
C1385      H1390   1.079       .  S
C1386      C1563   1.421       .  S
C1386      C1387   1.388       .  A
C1387      C1388   1.388       .  A
C1387      H1391   1.087       .  S
C1388      C1577   1.430       .  S
C1388      C1389   1.401       .  A
C1389      H1392   1.077       .  S
C1393      C1394   1.441       .  A
C1393      C1398   1.416       .  A
C1393      C1495   1.515       .  S
C1394      C1395   1.414       .  A
C1394      H1399   1.083       .  S
C1395      C1548   1.458       .  S
C1395      C1396   1.373       .  A
C1396      C1397   1.383       .  A
C1396      H1400   1.089       .  S
C1397      C1554   1.428       .  S
C1397      C1398   1.415       .  A
C1398      H1401   1.083       .  S
C1402      C1403   1.431       .  A
C1402      C1407   1.413       .  A
C1402      C1493   1.500       .  S
C1403      C1404   1.420       .  A
C1403      H1408   1.079       .  S
C1404      C1562   1.458       .  S
C1404      C1405   1.383       .  A
C1405      C1406   1.381       .  A
C1405      H1409   1.088       .  S
C1406      C1539   1.431       .  S
C1406      C1407   1.408       .  A
C1407      H1410   1.084       .  S
C1411      C1412   1.423       .  A
C1411      C1416   1.436       .  A
C1411      C1461   1.520       .  S
C1412      C1413   1.421       .  A
C1412      H1417   1.083       .  S
C1413      C1567   1.439       .  S
C1413      C1414   1.384       .  A
C1414      C1415   1.376       .  A
C1414      H1418   1.089       .  S
C1415      C1542   1.449       .  S
C1415      C1416   1.407       .  A
C1416      H1419   1.083       .  S
C1420      C1421   1.409       .  A
C1420      C1425   1.438       .  A
C1420      C1460   1.501       .  S
C1421      C1422   1.405       .  A
C1421      H1426   1.083       .  S
C1422      C1581   1.418       .  S
C1422      C1423   1.382       .  A
C1423      C1424   1.374       .  A
C1423      H1427   1.089       .  S
C1424      C1551   1.452       .  S
C1424      C1425   1.412       .  A
C1425      H1428   1.083       .  S
C1429      C1430   1.425       .  A
C1429      C1434   1.414       .  A
C1429      C1491   1.500       .  S
C1430      C1431   1.424       .  A
C1430      H1435   1.076       .  S
C1431      C1560   1.454       .  S
C1431      C1432   1.384       .  A
C1432      C1433   1.382       .  A
C1432      H1436   1.088       .  S
C1433      C1550   1.428       .  S
C1433      C1434   1.402       .  A
C1434      H1437   1.085       .  S
C1438      C1439   1.419       .  A
C1438      C1443   1.425       .  A
C1438      C1494   1.506       .  S
C1439      C1440   1.408       .  A
C1439      H1444   1.084       .  S
C1440      C1546   1.437       .  S
C1440      C1441   1.383       .  A
C1441      C1442   1.385       .  A
C1441      H1445   1.088       .  S
C1442      C1579   1.453       .  S
C1442      C1443   1.422       .  A
C1443      H1446   1.076       .  S
O1447     Zr1483   2.471       .  S
O1447      C1458   1.300       .  A
O1448     Zr2274   2.665   1_455  S
O1448      C1459   1.341       .  A
O1449     Zr1455   2.551       .  S
O1449      C1460   1.312       .  A
O1450     Zr1455   2.552   1_655  S
O1450      C3045   1.311       .  A
O1451      C1461   1.282       .  A
O1452      C1460   1.279       .  A
O1453     Zr1455   2.309       .  S
O1453      C1459   1.269       .  A
O1454      C1458   1.289       .  A
Zr1455     O3040   2.348   1_455  S
Zr1455     O1463   2.348       .  S
O1456     Zr3039   2.348       .  S
O1457     Zr1483   2.377       .  S
O1457     Zr1484   2.320       .  S
C1461      O3034   1.311       .  A
H1462      O1463   0.964       .  S
O1463     Zr2274   2.333   1_455  S
H1464      O3049   0.963       .  S
O1465     Zr1483   2.391   1_655  S
O1465     Zr3069   2.344       .  S
O1465      H3048   0.964       .  S
O1466     Zr1482   2.467       .  S
O1466      C1489   1.300       .  A
O1467     Zr2275   2.672   1_565  S
O1467      C1490   1.342       .  A
O1468      C1491   1.288       .  A
O1469      C1492   1.296       .  A
O1470     Zr1485   2.462       .  S
O1470      C1493   1.296       .  A
O1471     Zr1484   2.427       .  S
O1471      C1494   1.289       .  A
O1472     Zr3070   2.577   1_455  S
O1472      C1495   1.317       .  A
O1473     Zr1486   2.557       .  S
O1473      C1496   1.313       .  A
O1474      C1495   1.281       .  A
O1475      C1496   1.279       .  A
O1476     Zr3066   2.523   1_455  S
O1476      C1491   1.308       .  A
O1477     Zr1483   2.528       .  S
O1477      C1494   1.309       .  A
O1478     Zr3067   2.510       .  S
O1478      C1493   1.306       .  A
O1479     Zr1482   2.514       .  S
O1479      C1492   1.307       .  A
O1480      C1489   1.293       .  A
O1481     Zr1486   2.293       .  S
O1481      C1490   1.267       .  A
Zr1482     O2240   2.675   1_565  S
Zr1482     O3060   2.523       .  S
Zr1482     O2255   2.333   1_565  S
Zr1482     O3072   2.386       .  S
Zr1482     O1500   2.397       .  S
Zr1483     O2259   2.660   1_455  S
Zr1483     O3062   2.510   1_455  S
Zr1483     O2279   2.341   1_455  S
Zr1485     O3049   2.344       .  S
Zr1486     O3056   2.577       .  S
Zr1486     O1487   2.346       .  S
Zr1486     O2676   2.337       .  S
Zr1486     O3082   2.350       .  S
O1487     Zr2275   2.339   1_565  S
O1488     Zr3066   2.386   1_455  S
O1488     Zr2674   2.348   1_456  S
C1489      C1528   1.466       .  S
C1490      C1519   1.519       .  S
C1492      C1510   1.503       .  S
C1496      C1501   1.514       .  S
H1497      O1498   0.963       .  S
O1498     Zr3070   2.350   1_455  S
H1499      O1500   0.962       .  S
C1501      C1502   1.438       .  A
C1501      C1506   1.418       .  A
C1502      C1503   1.407       .  A
C1502      H1507   1.083       .  S
C1503      C1538   1.450       .  S
C1503      C1504   1.374       .  A
C1504      C1505   1.384       .  A
C1504      H1508   1.089       .  S
C1505      C1576   1.431       .  S
C1505      C1506   1.416       .  A
C1506      H1509   1.083       .  S
C1510      C1511   1.412       .  A
C1510      C1515   1.434       .  A
C1511      C1512   1.405       .  A
C1511      H1516   1.084       .  S
C1512      C1544   1.427       .  S
C1512      C1513   1.379       .  A
C1513      C1514   1.380       .  A
C1513      H1517   1.089       .  S
C1514      C1570   1.459       .  S
C1514      C1515   1.425       .  A
C1515      H1518   1.080       .  S
C1519      C1520   1.442       .  A
C1519      C1524   1.439       .  A
C1520      C1521   1.428       .  A
C1520      H1525   1.083       .  S
C1521      C1556   1.464       .  S
C1521      C1522   1.378       .  A
C1522      C1523   1.378       .  A
C1522      H1526   1.089       .  S
C1523      C1573   1.461       .  S
C1523      C1524   1.428       .  A
C1524      H1527   1.083       .  S
C1528      C1529   1.406       .  A
C1528      C1533   1.405       .  A
C1529      C1530   1.400       .  A
C1529      H1534   1.081       .  S
C1530      C1572   1.423       .  S
C1530      C1531   1.385       .  A
C1531      C1532   1.383       .  A
C1531      H1535   1.088       .  S
C1532      C1557   1.425       .  S
C1532      C1533   1.400       .  A
C1533      H1536   1.077       .  S
C1537      C1538   1.215       .  T
C1539      C1540   1.204       .  T
C1541      C1542   1.214       .  T
C1543      C1544   1.202       .  T
C1545      C1546   1.206       .  T
C1547      C1548   1.220       .  T
C1549      C1550   1.200       .  T
C1551      C1552   1.217       .  T
C1553      C1554   1.205       .  T
C1555      C1556   1.225       .  T
C1557      C1558   1.199       .  T
C1559      C1560   1.217       .  T
C1561      C1562   1.221       .  T
C1563      C1564   1.195       .  T
C1565      C1566   1.220       .  T
C1567      C1568   1.210       .  T
C1569      C1570   1.222       .  T
C1571      C1572   1.198       .  T
C1573      C1574   1.224       .  T
C1575      C1576   1.206       .  T
C1577      C1578   1.201       .  T
C1579      C1580   1.217       .  T
C1581      C1582   1.198       .  T
C1583      C1584   1.228       .  T
O1585     Zr1597   2.419       .  S
O1585      C1587   1.278       .  A
O1586     Zr1623   2.411       .  S
O1586      C1587   1.280       .  A
C1587      C1978   1.420       .  S
O1588     Zr1600   2.540       .  S
O1588      C1590   1.303       .  A
O1589     Zr1624   2.387       .  S
O1589      C1590   1.277       .  A
C1590      C1965   1.458       .  S
O1591     Zr1600   2.542       .  S
O1591      C1593   1.306       .  A
O1592     Zr1623   2.385       .  S
O1592      C1593   1.276       .  A
C1593      C1979   1.468       .  S
O1594     Zr1597   2.455       .  S
O1594      C1596   1.286       .  A
O1595     Zr1624   2.400       .  S
O1595      C1596   1.279       .  A
C1596      C1967   1.423       .  S
Zr1597     O1598   2.438       .  S
Zr1597     O1599   2.436       .  S
Zr1597     O1603   2.281       .  S
Zr1597     O1604   2.354       .  S
Zr1597     O1627   2.379       .  S
Zr1597     O1629   2.385       .  S
O1598      H1641   0.990       .  S
O1599      H1640   0.991       .  S
O1599      H1644   0.990       .  S
Zr1600     O1601   2.438       .  S
Zr1600     O1602   2.435       .  S
Zr1600     O1603   2.278       .  S
Zr1600     O1604   2.375       .  S
Zr1600     O1628   2.396       .  S
Zr1600     O1630   2.407       .  S
O1601      H1642   0.990       .  S
O1601      H1645   0.991       .  S
O1602      H1635   0.990       .  S
O1603     Zr1623   2.245       .  S
O1604     Zr1624   2.383       .  S
O1604      H1631   0.961       .  S
O1605     Zr1617   2.560       .  S
O1605      C1607   1.309       .  A
O1606     Zr1624   2.377       .  S
O1606      C1607   1.275       .  A
C1607      C1970   1.460       .  S
O1608     Zr1620   2.446       .  S
O1608      C1610   1.285       .  A
O1609     Zr1623   2.401       .  S
O1609      C1610   1.279       .  A
C1610      C1974   1.428       .  S
O1611     Zr1620   2.470       .  S
O1611      C1613   1.290       .  A
O1612     Zr1624   2.406       .  S
O1612      C1613   1.279       .  A
C1613      C1971   1.433       .  S
O1614     Zr1617   2.520       .  S
O1614      C1616   1.301       .  A
O1615     Zr1623   2.370       .  S
O1615      C1616   1.272       .  A
C1616      C1976   1.450       .  S
Zr1617     O1618   2.438       .  S
Zr1617     O1619   2.435       .  S
Zr1617     O1626   2.291       .  S
Zr1617     O1625   2.339       .  S
Zr1617     O1629   2.396       .  S
Zr1617     O1627   2.398       .  S
O1618      H1638   0.990       .  S
O1618      H1643   0.991       .  S
O1619      H1639   0.990       .  S
Zr1620     O1621   2.438       .  S
Zr1620     O1622   2.433       .  S
Zr1620     O1626   2.280       .  S
Zr1620     O1625   2.359       .  S
Zr1620     O1630   2.392       .  S
Zr1620     O1628   2.390       .  S
O1621      H1637   0.990       .  S
O1622      H1636   0.990       .  S
O1622      H1646   0.991       .  S
Zr1623     O1626   2.260       .  S
Zr1623     O1628   2.387       .  S
Zr1623     O1629   2.394       .  S
Zr1624     O1625   2.387       .  S
Zr1624     O1627   2.394       .  S
Zr1624     O1630   2.394       .  S
O1625      H1633   0.959       .  S
O1628      H1632   0.968       .  S
O1629      H1634   0.968       .  S
O1647     Zr1659   2.526       .  S
O1647      C1649   1.303       .  A
O1648      C1649   1.275       .  A
C1649      C1961   1.455       .  S
O1650     Zr1662   2.469       .  S
O1650      C1652   1.289       .  A
O1651     Zr1686   2.392   1_655  S
O1651      C1652   1.277       .  A
C1652      C1954   1.424       .  S
O1653     Zr1662   2.453       .  S
O1653      C1655   1.286       .  A
O1654     Zr1685   2.418       .  S
O1654      C1655   1.281       .  A
C1655      C1964   1.441       .  S
O1656     Zr1659   2.533       .  S
O1656      C1658   1.303       .  A
O1657      C1658   1.275       .  A
C1658      C1955   1.450       .  S
Zr1659     O1660   2.436       .  S
Zr1659     O1661   2.434       .  S
Zr1659     O1689   2.401       .  S
Zr1659     O1691   2.396       .  S
O1660      H1703   0.990       .  S
O1661      H1702   0.990       .  S
O1661      H1706   0.991       .  S
Zr1662     O1663   2.441       .  S
Zr1662     O1664   2.436       .  S
Zr1662     O1665   2.274       .  S
Zr1662     O1666   2.362       .  S
Zr1662     O1690   2.391       .  S
Zr1662     O1692   2.389       .  S
O1663      H1704   0.990       .  S
O1663      H1707   0.991       .  S
O1664      H1697   0.991       .  S
O1665     Zr1685   2.248       .  S
O1666     Zr1686   2.390   1_655  S
O1666      H1693   0.962       .  S
O1667     Zr1679   2.460       .  S
O1667      C1669   1.287       .  A
O1668      C1669   1.281       .  A
C1669      C1949   1.430       .  S
O1670     Zr1682   2.510       .  S
O1670      C1672   1.297       .  A
O1671     Zr1685   2.391       .  S
O1671      C1672   1.277       .  A
C1672      C1957   1.457       .  S
O1673     Zr1682   2.560       .  S
O1673      C1675   1.309       .  A
O1674     Zr1686   2.373   1_655  S
O1674      C1675   1.274       .  A
C1675      C1951   1.462       .  S
O1676     Zr1679   2.431       .  S
O1676      C1678   1.282       .  A
O1677      C1678   1.277       .  A
C1678      C1960   1.418       .  S
Zr1679     O1680   2.441       .  S
Zr1679     O1681   2.435       .  S
Zr1679     O1691   2.385       .  S
Zr1679     O1689   2.383       .  S
O1680      H1700   0.990       .  S
O1680      H1705   0.990       .  S
O1681      H1701   0.990       .  S
Zr1682     O1683   2.436       .  S
Zr1682     O1684   2.433       .  S
Zr1682     O1688   2.293       .  S
Zr1682     O1687   2.334   1_655  S
Zr1682     O1692   2.395       .  S
Zr1682     O1690   2.402       .  S
O1683      H1699   0.990       .  S
O1684      H1698   0.990       .  S
O1684      H1708   0.990       .  S
Zr1685     O1688   2.256       .  S
Zr1685     O1690   2.390       .  S
Zr1686     O1687   2.381       .  S
Zr1686     O1692   2.393   1_455  S
O1687      H1695   0.959       .  S
O1690      H1694   0.966       .  S
O1691      H1696   0.970       .  S
O1709     Zr1721   2.461       .  S
O1709      C1711   1.288       .  A
O1710     Zr1747   2.380       .  S
O1710      C1711   1.276       .  A
C1711      C1945   1.425       .  S
O1712     Zr1724   2.496       .  S
O1712      C1714   1.295       .  A
O1713     Zr2540   2.415   1_545  S
O1713      C1714   1.283       .  A
C1714      C1937   1.449       .  S
O1715     Zr1724   2.468       .  S
O1715      C1717   1.290       .  A
O1716     Zr2539   2.436       .  S
O1716      C1717   1.287       .  A
C1717      C1948   1.454       .  S
O1718     Zr1721   2.489       .  S
O1718      C1720   1.295       .  A
O1719     Zr1748   2.371       .  S
O1719      C1720   1.274       .  A
C1720      C1939   1.426       .  S
Zr1721     O1722   2.437       .  S
Zr1721     O1723   2.436       .  S
Zr1721     O1727   2.282       .  S
Zr1721     O1728   2.359       .  S
Zr1721     O1751   2.378       .  S
Zr1721     O1753   2.390       .  S
O1722      H1765   0.990       .  S
O1723      H1764   0.990       .  S
O1723      H1768   0.990       .  S
Zr1724     O1725   2.440       .  S
Zr1724     O1726   2.436       .  S
Zr1724     O2519   2.277   1_545  S
Zr1724     O2520   2.354   1_545  S
Zr1724     O1752   2.387       .  S
Zr1724     O1754   2.383       .  S
O1725      H1766   0.990       .  S
O1725      H1769   0.991       .  S
O1726      H1759   0.990       .  S
O1727     Zr2516   2.282       .  S
O1727     Zr1747   2.257       .  S
O1728     Zr2516   2.360       .  S
O1728     Zr1748   2.389       .  S
O1728      H1755   0.960       .  S
O1729     Zr1741   2.488       .  S
O1729      C1731   1.294       .  A
O1730     Zr1748   2.428       .  S
O1730      C1731   1.285       .  A
C1731      C1933   1.451       .  S
O1732     Zr1744   2.478       .  S
O1732      C1734   1.291       .  A
O1733     Zr2539   2.388       .  S
O1733      C1734   1.276       .  A
C1734      C1941   1.434       .  S
O1735     Zr1744   2.498       .  S
O1735      C1737   1.297       .  A
O1736     Zr2540   2.371   1_545  S
O1736      C1737   1.274       .  A
C1737      C1936   1.429       .  S
O1738     Zr1741   2.475       .  S
O1738      C1740   1.291       .  A
O1739     Zr1747   2.445       .  S
O1739      C1740   1.288       .  A
C1740      C1943   1.460       .  S
Zr1741     O1742   2.439       .  S
Zr1741     O1743   2.433       .  S
Zr1741     O1749   2.363       .  S
Zr1741     O1750   2.365       .  S
Zr1741     O1753   2.392       .  S
Zr1741     O1751   2.394       .  S
O1742      H1762   0.990       .  S
O1742      H1767   0.990       .  S
O1743      H1763   0.990       .  S
Zr1744     O1745   2.435       .  S
Zr1744     O1746   2.433       .  S
Zr1744     O2542   2.376       .  S
Zr1744     O2541   2.360       .  S
Zr1744     O1754   2.387       .  S
Zr1744     O1752   2.396       .  S
O1745      H1761   0.990       .  S
O1746      H1760   0.991       .  S
O1746      H1770   0.990       .  S
Zr1747     O2508   2.420       .  S
Zr1747     O2525   2.370       .  S
Zr1747     O1750   2.366       .  S
Zr1747     O2544   2.395       .  S
Zr1747     O1753   2.392       .  S
Zr1748     O2505   2.453       .  S
Zr1748     O2528   2.384       .  S
Zr1748     O1749   2.388       .  S
Zr1748     O1751   2.394       .  S
Zr1748     O2546   2.391       .  S
O1749     Zr2536   2.374       .  S
O1749      H1757   0.962       .  S
O1750     Zr2536   2.366       .  S
O1752     Zr2539   2.393       .  S
O1752      H1756   0.969       .  S
O1753      H1758   0.964       .  S
O1754     Zr2540   2.394   1_545  S
C1771      C1772   1.444       .  A
C1771      C1776   1.434       .  A
C1771      C1855   1.520       .  S
C1772      C1773   1.430       .  A
C1772      H1777   1.083       .  S
C1773      C1980   1.469       .  S
C1773      C1774   1.378       .  A
C1774      C1775   1.381       .  A
C1774      H1778   1.089       .  S
C1775      C1962   1.456       .  S
C1775      C1776   1.424       .  A
C1776      H1779   1.083       .  S
C1780      C1781   1.400       .  A
C1780      C1785   1.406       .  A
C1780      C1854   1.463       .  S
C1781      C1782   1.395       .  A
C1781      H1786   1.079       .  S
C1782      C1959   1.421       .  S
C1782      C1783   1.388       .  A
C1783      C1784   1.388       .  A
C1783      H1787   1.087       .  S
C1784      C1973   1.430       .  S
C1784      C1785   1.401       .  A
C1785      H1788   1.077       .  S
C1789      C1790   1.441       .  A
C1789      C1794   1.416       .  A
C1789      C1891   1.515       .  S
C1790      C1791   1.414       .  A
C1790      H1795   1.083       .  S
C1791      C1944   1.458       .  S
C1791      C1792   1.373       .  A
C1792      C1793   1.383       .  A
C1792      H1796   1.089       .  S
C1793      C1950   1.428       .  S
C1793      C1794   1.415       .  A
C1794      H1797   1.083       .  S
C1798      C1799   1.431       .  A
C1798      C1803   1.413       .  A
C1798      C1889   1.500       .  S
C1799      C1800   1.420       .  A
C1799      H1804   1.079       .  S
C1800      C1958   1.458       .  S
C1800      C1801   1.383       .  A
C1801      C1802   1.381       .  A
C1801      H1805   1.088       .  S
C1802      C1935   1.431       .  S
C1802      C1803   1.408       .  A
C1803      H1806   1.084       .  S
C1807      C1808   1.423       .  A
C1807      C1812   1.436       .  A
C1807      C1857   1.520       .  S
C1808      C1809   1.421       .  A
C1808      H1813   1.083       .  S
C1809      C1963   1.439       .  S
C1809      C1810   1.384       .  A
C1810      C1811   1.376       .  A
C1810      H1814   1.089       .  S
C1811      C1938   1.449       .  S
C1811      C1812   1.407       .  A
C1812      H1815   1.083       .  S
C1816      C1817   1.409       .  A
C1816      C1821   1.438       .  A
C1816      C1856   1.501       .  S
C1817      C1818   1.405       .  A
C1817      H1822   1.083       .  S
C1818      C1977   1.418       .  S
C1818      C1819   1.382       .  A
C1819      C1820   1.374       .  A
C1819      H1823   1.089       .  S
C1820      C1947   1.452       .  S
C1820      C1821   1.412       .  A
C1821      H1824   1.083       .  S
C1825      C1826   1.425       .  A
C1825      C1830   1.414       .  A
C1825      C1887   1.500       .  S
C1826      C1827   1.424       .  A
C1826      H1831   1.076       .  S
C1827      C1956   1.454       .  S
C1827      C1828   1.384       .  A
C1828      C1829   1.382       .  A
C1828      H1832   1.088       .  S
C1829      C1946   1.428       .  S
C1829      C1830   1.401       .  A
C1830      H1833   1.085       .  S
C1834      C1835   1.419       .  A
C1834      C1839   1.425       .  A
C1834      C1890   1.506       .  S
C1835      C1836   1.408       .  A
C1835      H1840   1.084       .  S
C1836      C1942   1.437       .  S
C1836      C1837   1.383       .  A
C1837      C1838   1.385       .  A
C1837      H1841   1.088       .  S
C1838      C1975   1.453       .  S
C1838      C1839   1.422       .  A
C1839      H1842   1.076       .  S
O1843     Zr1879   2.471       .  S
O1843      C1854   1.300       .  A
O1844      C1855   1.341       .  A
O1845     Zr1851   2.551       .  S
O1845      C1856   1.312       .  A
O1846     Zr1851   2.552       .  S
O1847     Zr2277   2.392   1_545  S
O1847      C1857   1.282       .  A
O1848     Zr2276   2.378   1_545  S
O1848      C1856   1.279       .  A
O1849     Zr1851   2.309       .  S
O1849      C1855   1.269       .  A
O1850     Zr2247   2.420   1_554  S
O1850      C1854   1.289       .  A
Zr1851     O2246   2.431       .  S
Zr1851     O2249   2.345       .  S
Zr1851     O2257   2.341       .  S
Zr1851     O1859   2.348       .  S
O1852     Zr2670   2.341   1_545  S
O1852     Zr2277   2.334   1_545  S
O1853     Zr2247   2.336   1_554  S
O1853     Zr1879   2.377       .  S
O1853     Zr1880   2.320   1_545  S
H1858      O1859   0.964       .  S
O1859     Zr2276   2.347   1_545  S
O1861     Zr2247   2.336   1_554  S
O1861     Zr1879   2.391       .  S
O1862     Zr1878   2.467       .  S
O1862      C1885   1.300       .  A
O1863      C1886   1.342       .  A
O1864     Zr3068   2.416       .  S
O1864      C1887   1.288       .  A
O1865     Zr3069   2.464       .  S
O1865      C1888   1.296       .  A
O1866     Zr1881   2.462   1_545  S
O1866      C1889   1.296       .  A
O1867     Zr1880   2.427   1_545  S
O1867      C1890   1.289       .  A
O1868      C1891   1.317       .  A
O1869     Zr1882   2.557       .  S
O1869      C1892   1.313       .  A
O1870     Zr2672   2.388       .  S
O1870      C1891   1.281       .  A
O1871     Zr2673   2.371       .  S
O1871      C1892   1.279       .  A
O1872      C1887   1.308       .  A
O1873     Zr1879   2.528       .  S
O1873      C1890   1.309       .  A
O1874      C1889   1.306       .  A
O1875     Zr1878   2.514       .  S
O1875      C1888   1.307       .  A
O1876     Zr2278   2.436       .  S
O1876      C1885   1.293       .  A
O1877     Zr1882   2.293       .  S
O1877      C1886   1.267       .  A
Zr1878     O2644   2.336       .  S
Zr1878     O1896   2.397       .  S
Zr1879     O2686   2.333   1_545  S
Zr1880     O2244   2.391   1_564  S
Zr1880     O3052   2.416   1_554  S
Zr1880     O2662   2.386       .  S
Zr1880     O2255   2.341   1_564  S
Zr1880     O3072   2.323   1_554  S
Zr1880     O2686   2.341       .  S
Zr1881     O2243   2.378   1_564  S
Zr1881     O3053   2.464   1_554  S
Zr1881     O2663   2.379       .  S
Zr1881     O2248   2.339   1_564  S
Zr1881     O2675   2.338       .  S
Zr1881     O3084   2.340   1_554  S
Zr1882     O2272   2.433   1_554  S
Zr1882     O1883   2.347       .  S
Zr1882     O2292   2.344   1_554  S
O1883     Zr2673   2.339       .  S
O1884     Zr3068   2.323       .  S
C1885      C1924   1.466       .  S
C1886      C1915   1.519       .  S
C1888      C1906   1.503       .  S
C1892      C1897   1.514       .  S
H1893      O1894   0.964       .  S
O1894     Zr2671   2.321       .  S
O1894     Zr2672   2.338       .  S
H1895      O1896   0.962       .  S
O1896     Zr3069   2.340       .  S
O1896     Zr2278   2.345       .  S
C1897      C1898   1.438       .  A
C1897      C1902   1.418       .  A
C1898      C1899   1.407       .  A
C1898      H1903   1.083       .  S
C1899      C1934   1.450       .  S
C1899      C1900   1.374       .  A
C1900      C1901   1.384       .  A
C1900      H1904   1.089       .  S
C1901      C1972   1.431       .  S
C1901      C1902   1.416       .  A
C1902      H1905   1.083       .  S
C1906      C1907   1.412       .  A
C1906      C1911   1.434       .  A
C1907      C1908   1.405       .  A
C1907      H1912   1.084       .  S
C1908      C1940   1.427       .  S
C1908      C1909   1.379       .  A
C1909      C1910   1.380       .  A
C1909      H1913   1.089       .  S
C1910      C1966   1.459       .  S
C1910      C1911   1.425       .  A
C1911      H1914   1.080       .  S
C1915      C1916   1.442       .  A
C1915      C1920   1.439       .  A
C1916      C1917   1.428       .  A
C1916      H1921   1.083       .  S
C1917      C1952   1.464       .  S
C1917      C1918   1.378       .  A
C1918      C1919   1.378       .  A
C1918      H1922   1.089       .  S
C1919      C1969   1.461       .  S
C1919      C1920   1.428       .  A
C1920      H1923   1.083       .  S
C1924      C1925   1.406       .  A
C1924      C1929   1.405       .  A
C1925      C1926   1.400       .  A
C1925      H1930   1.081       .  S
C1926      C1968   1.423       .  S
C1926      C1927   1.385       .  A
C1927      C1928   1.383       .  A
C1927      H1931   1.088       .  S
C1928      C1953   1.425       .  S
C1928      C1929   1.400       .  A
C1929      H1932   1.077       .  S
C1933      C1934   1.215       .  T
C1935      C1936   1.204       .  T
C1937      C1938   1.214       .  T
C1939      C1940   1.202       .  T
C1941      C1942   1.206       .  T
C1943      C1944   1.220       .  T
C1945      C1946   1.200       .  T
C1947      C1948   1.217       .  T
C1949      C1950   1.205       .  T
C1951      C1952   1.225       .  T
C1953      C1954   1.200       .  T
C1955      C1956   1.217       .  T
C1957      C1958   1.221       .  T
C1959      C1960   1.195       .  T
C1961      C1962   1.220       .  T
C1963      C1964   1.210       .  T
C1965      C1966   1.222       .  T
C1967      C1968   1.198       .  T
C1969      C1970   1.224       .  T
C1971      C1972   1.206       .  T
C1973      C1974   1.201       .  T
C1975      C1976   1.217       .  T
C1977      C1978   1.198       .  T
C1979      C1980   1.228       .  T
O1981     Zr1993   2.452       .  S
O1981      C1983   1.286       .  A
O1982     Zr2019   2.416       .  S
O1982      C1983   1.281       .  A
C1983      C2374   1.439       .  S
O1984     Zr1996   2.551       .  S
O1984      C1986   1.307       .  A
O1985     Zr2020   2.376       .  S
O1985      C1986   1.275       .  A
C1986      C2361   1.457       .  S
O1987     Zr1996   2.527       .  S
O1987      C1989   1.304       .  A
O1988     Zr2019   2.380       .  S
O1988      C1989   1.276       .  A
C1989      C2375   1.457       .  S
O1990     Zr1993   2.465       .  S
O1990      C1992   1.289       .  A
O1991     Zr2020   2.394       .  S
O1991      C1992   1.278       .  A
C1992      C2363   1.424       .  S
Zr1993     O1994   2.438       .  S
Zr1993     O1995   2.435       .  S
Zr1993     O1999   2.270       .  S
Zr1993     O2000   2.363       .  S
Zr1993     O2023   2.387       .  S
Zr1993     O2025   2.390       .  S
O1994      H2037   0.990       .  S
O1995      H2036   0.990       .  S
O1995      H2040   0.990       .  S
Zr1996     O1997   2.436       .  S
Zr1996     O1998   2.435       .  S
Zr1996     O1999   2.280       .  S
Zr1996     O2000   2.362       .  S
Zr1996     O2024   2.401       .  S
Zr1996     O2026   2.399       .  S
O1997      H2038   0.990       .  S
O1997      H2041   0.990       .  S
O1998      H2031   0.990       .  S
O1999     Zr2019   2.248       .  S
O2000     Zr2020   2.388       .  S
O2000      H2027   0.961       .  S
O2001     Zr2013   2.559       .  S
O2001      C2003   1.308       .  A
O2002     Zr2020   2.375       .  S
O2002      C2003   1.275       .  A
C2003      C2366   1.461       .  S
O2004     Zr2016   2.433       .  S
O2004      C2006   1.283       .  A
O2005     Zr2019   2.396       .  S
O2005      C2006   1.278       .  A
C2006      C2370   1.421       .  S
O2007     Zr2016   2.452       .  S
O2007      C2009   1.286       .  A
O2008     Zr2020   2.411       .  S
O2008      C2009   1.279       .  A
C2009      C2367   1.429       .  S
O2010     Zr2013   2.505       .  S
O2010      C2012   1.296       .  A
O2011     Zr2019   2.392       .  S
O2011      C2012   1.277       .  A
C2012      C2372   1.455       .  S
Zr2013     O2014   2.438       .  S
Zr2013     O2015   2.434       .  S
Zr2013     O2022   2.296       .  S
Zr2013     O2021   2.335       .  S
Zr2013     O2025   2.403       .  S
Zr2013     O2023   2.394       .  S
O2014      H2034   0.990       .  S
O2014      H2039   0.991       .  S
O2015      H2035   0.990       .  S
Zr2016     O2017   2.439       .  S
Zr2016     O2018   2.435       .  S
Zr2016     O2022   2.286       .  S
Zr2016     O2021   2.373       .  S
Zr2016     O2026   2.382       .  S
Zr2016     O2024   2.383       .  S
O2017      H2033   0.990       .  S
O2018      H2032   0.990       .  S
O2018      H2042   0.990       .  S
Zr2019     O2022   2.256       .  S
Zr2019     O2024   2.394       .  S
Zr2019     O2025   2.391       .  S
Zr2020     O2021   2.383       .  S
Zr2020     O2023   2.390       .  S
Zr2020     O2026   2.390       .  S
O2021      H2029   0.959       .  S
O2024      H2028   0.969       .  S
O2025      H2030   0.968       .  S
O2043     Zr2055   2.538       .  S
O2043      C2045   1.305       .  A
O2044      C2045   1.274       .  A
C2045      C2357   1.465       .  S
O2046     Zr2058   2.466       .  S
O2046      C2048   1.289       .  A
O2047     Zr2082   2.396   1_655  S
O2047      C2048   1.278       .  A
C2048      C2350   1.425       .  S
O2049     Zr2058   2.424       .  S
O2049      C2051   1.280       .  A
O2050     Zr2081   2.416   1_655  S
O2050      C2051   1.282       .  A
C2051      C2360   1.423       .  S
O2052     Zr2055   2.524       .  S
O2052      C2054   1.301       .  A
O2053      C2054   1.280       .  A
C2054      C2351   1.453       .  S
Zr2055     O2056   2.435       .  S
Zr2055     O2057   2.435       .  S
Zr2055     O2085   2.410       .  S
Zr2055     O2087   2.396       .  S
O2056      H2099   0.990       .  S
O2057      H2098   0.990       .  S
O2057      H2102   0.990       .  S
Zr2058     O2059   2.441       .  S
Zr2058     O2060   2.437       .  S
Zr2058     O2061   2.281       .  S
Zr2058     O2062   2.356   1_655  S
Zr2058     O2086   2.386       .  S
Zr2058     O2088   2.378       .  S
O2059      H2100   0.990       .  S
O2059      H2103   0.991       .  S
O2060      H2093   0.991       .  S
O2061     Zr2081   2.244   1_655  S
O2062     Zr2082   2.387       .  S
O2062      H2089   0.961   1_455  S
O2063     Zr2075   2.480       .  S
O2063      C2065   1.293       .  A
O2064      C2065   1.283       .  A
C2065      C2345   1.442       .  S
O2066     Zr2078   2.502       .  S
O2066      C2068   1.297       .  A
O2067     Zr2081   2.373   1_655  S
O2067      C2068   1.274       .  A
C2068      C2353   1.442       .  S
O2069     Zr2078   2.546       .  S
O2069      C2071   1.306       .  A
O2070     Zr2082   2.378   1_655  S
O2070      C2071   1.276       .  A
C2071      C2347   1.457       .  S
O2072     Zr2075   2.455       .  S
O2072      C2074   1.287       .  A
O2073      C2074   1.279       .  A
C2074      C2356   1.433       .  S
Zr2075     O2076   2.441       .  S
Zr2075     O2077   2.434       .  S
Zr2075     O2087   2.391       .  S
Zr2075     O2085   2.391       .  S
O2076      H2096   0.990       .  S
O2076      H2101   0.991       .  S
O2077      H2097   0.990       .  S
Zr2078     O2079   2.436       .  S
Zr2078     O2080   2.435       .  S
Zr2078     O2084   2.290   1_655  S
Zr2078     O2083   2.337   1_655  S
Zr2078     O2088   2.395       .  S
Zr2078     O2086   2.394       .  S
O2079      H2095   0.990       .  S
O2080      H2094   0.990       .  S
O2080      H2104   0.991       .  S
Zr2081     O2084   2.255       .  S
Zr2081     O2086   2.393   1_455  S
Zr2082     O2083   2.384       .  S
Zr2082     O2088   2.396   1_455  S
O2083      H2091   0.958       .  S
O2086      H2090   0.968       .  S
O2087      H2092   0.970       .  S
O2105     Zr2117   2.476       .  S
O2105      C2107   1.293       .  A
O2106     Zr2143   2.380       .  S
O2106      C2107   1.275       .  A
C2107      C2341   1.430       .  S
O2108     Zr2120   2.488       .  S
O2108      C2110   1.293       .  A
O2109     Zr2936   2.453       .  S
O2109      C2110   1.290       .  A
C2110      C2333   1.460       .  S
O2111     Zr2120   2.469       .  S
O2111      C2113   1.290       .  A
O2112     Zr2935   2.421       .  S
O2112      C2113   1.284       .  A
C2113      C2344   1.447       .  S
O2114     Zr2117   2.483       .  S
O2114      C2116   1.293       .  A
O2115     Zr2144   2.388       .  S
O2115      C2116   1.277       .  A
C2116      C2335   1.432       .  S
Zr2117     O2118   2.437       .  S
Zr2117     O2119   2.434       .  S
Zr2117     O2123   2.277       .  S
Zr2117     O2124   2.377       .  S
Zr2117     O2147   2.390       .  S
Zr2117     O2149   2.384       .  S
O2118      H2161   0.990       .  S
O2119      H2160   0.991       .  S
O2119      H2164   0.990       .  S
Zr2120     O2121   2.440       .  S
Zr2120     O2122   2.434       .  S
Zr2120     O2915   2.282   1_545  S
Zr2120     O2916   2.360   1_545  S
Zr2120     O2148   2.382       .  S
Zr2120     O2150   2.384       .  S
O2121      H2162   0.990       .  S
O2121      H2165   0.991       .  S
O2122      H2155   0.990       .  S
O2123     Zr2912   2.277       .  S
O2123     Zr2143   2.255       .  S
O2124     Zr2912   2.354       .  S
O2124     Zr2144   2.394       .  S
O2124      H2151   0.962       .  S
O2125     Zr2137   2.496       .  S
O2125      C2127   1.295       .  A
O2126     Zr2144   2.448       .  S
O2126      C2127   1.289       .  A
C2127      C2329   1.462       .  S
O2128     Zr2140   2.477       .  S
O2128      C2130   1.292       .  A
O2129     Zr2935   2.370       .  S
O2129      C2130   1.271       .  A
C2130      C2337   1.426       .  S
O2131     Zr2140   2.478       .  S
O2131      C2133   1.292       .  A
O2132     Zr2936   2.384       .  S
O2132      C2133   1.277       .  A
C2133      C2332   1.427       .  S
O2134     Zr2137   2.468       .  S
O2134      C2136   1.290       .  A
O2135     Zr2143   2.419       .  S
O2135      C2136   1.283       .  A
C2136      C2339   1.446       .  S
Zr2137     O2138   2.438       .  S
Zr2137     O2139   2.433       .  S
Zr2137     O2145   2.363       .  S
Zr2137     O2146   2.372       .  S
Zr2137     O2149   2.394       .  S
Zr2137     O2147   2.391       .  S
O2138      H2158   0.990       .  S
O2138      H2163   0.990       .  S
O2139      H2159   0.990       .  S
Zr2140     O2141   2.435       .  S
Zr2140     O2142   2.433       .  S
Zr2140     O2938   2.366       .  S
Zr2140     O2937   2.374       .  S
Zr2140     O2150   2.397       .  S
Zr2140     O2148   2.391       .  S
O2141      H2157   0.991       .  S
O2142      H2156   0.991       .  S
O2142      H2166   0.990       .  S
Zr2143     O2904   2.436       .  S
Zr2143     O2921   2.388       .  S
Zr2143     O2146   2.370       .  S
Zr2143     O2940   2.393       .  S
Zr2143     O2149   2.394       .  S
Zr2144     O2901   2.415       .  S
Zr2144     O2924   2.371       .  S
Zr2144     O2145   2.383       .  S
Zr2144     O2147   2.390       .  S
Zr2144     O2942   2.394       .  S
O2145     Zr2932   2.360       .  S
O2145      H2153   0.958       .  S
O2146     Zr2932   2.376       .  S
O2148     Zr2935   2.395       .  S
O2148      H2152   0.970       .  S
O2149      H2154   0.964       .  S
O2150     Zr2936   2.391       .  S
C2167      C2168   1.437       .  A
C2167      C2172   1.444       .  A
C2167      C2251   1.522       .  S
C2168      C2169   1.426       .  A
C2168      H2173   1.083       .  S
C2169      C2376   1.457       .  S
C2169      C2170   1.378       .  A
C2170      C2171   1.377       .  A
C2170      H2174   1.089       .  S
C2171      C2358   1.466       .  S
C2171      C2172   1.430       .  A
C2172      H2175   1.082       .  S
C2176      C2177   1.410       .  A
C2176      C2181   1.401       .  A
C2176      C2250   1.469       .  S
C2177      C2178   1.406       .  A
C2177      H2182   1.077       .  S
C2178      C2355   1.434       .  S
C2178      C2179   1.387       .  A
C2179      C2180   1.387       .  A
C2179      H2183   1.087       .  S
C2180      C2369   1.422       .  S
C2180      C2181   1.395       .  A
C2181      H2184   1.078       .  S
C2185      C2186   1.436       .  A
C2185      C2190   1.424       .  A
C2185      C2287   1.521       .  S
C2186      C2187   1.402       .  A
C2186      H2191   1.083       .  S
C2187      C2340   1.447       .  S
C2187      C2188   1.375       .  A
C2188      C2189   1.385       .  A
C2188      H2192   1.089       .  S
C2189      C2346   1.441       .  S
C2189      C2190   1.424       .  A
C2190      H2193   1.083       .  S
C2194      C2195   1.420       .  A
C2194      C2199   1.414       .  A
C2194      C2285   1.493       .  S
C2195      C2196   1.416       .  A
C2195      H2200   1.077       .  S
C2196      C2354   1.444       .  S
C2196      C2197   1.383       .  A
C2197      C2198   1.380       .  A
C2197      H2201   1.088       .  S
C2198      C2331   1.431       .  S
C2198      C2199   1.406       .  A
C2199      H2202   1.084       .  S
C2203      C2204   1.409       .  A
C2203      C2208   1.439       .  A
C2203      C2253   1.505       .  S
C2204      C2205   1.406       .  A
C2204      H2209   1.083       .  S
C2205      C2359   1.420       .  S
C2205      C2206   1.384       .  A
C2206      C2207   1.376       .  A
C2206      H2210   1.089       .  S
C2207      C2334   1.458       .  S
C2207      C2208   1.417       .  A
C2208      H2211   1.083       .  S
C2212      C2213   1.421       .  A
C2212      C2217   1.434       .  A
C2212      C2252   1.514       .  S
C2213      C2214   1.418       .  A
C2213      H2218   1.083       .  S
C2214      C2373   1.437       .  S
C2214      C2215   1.385       .  A
C2215      C2216   1.378       .  A
C2215      H2219   1.088       .  S
C2216      C2343   1.448       .  S
C2216      C2217   1.406       .  A
C2217      H2220   1.083       .  S
C2221      C2222   1.430       .  A
C2221      C2226   1.411       .  A
C2221      C2283   1.495       .  S
C2222      C2223   1.421       .  A
C2222      H2227   1.079       .  S
C2223      C2352   1.455       .  S
C2223      C2224   1.384       .  A
C2224      C2225   1.382       .  A
C2224      H2228   1.088       .  S
C2225      C2342   1.430       .  S
C2225      C2226   1.404       .  A
C2226      H2229   1.084       .  S
C2230      C2231   1.412       .  A
C2230      C2235   1.430       .  A
C2230      C2286   1.498       .  S
C2231      C2232   1.404       .  A
C2231      H2236   1.084       .  S
C2232      C2338   1.427       .  S
C2232      C2233   1.381       .  A
C2233      C2234   1.382       .  A
C2233      H2237   1.089       .  S
C2234      C2371   1.456       .  S
C2234      C2235   1.421       .  A
C2235      H2238   1.078       .  S
O2239     Zr2275   2.476       .  S
O2239      C2250   1.301       .  A
O2240      C2251   1.343       .  A
O2241     Zr2247   2.549       .  S
O2241      C2252   1.310       .  A
O2242     Zr2247   2.553       .  S
O2243      C2253   1.279       .  A
O2244      C2252   1.282       .  A
O2245     Zr2247   2.297       .  S
O2245      C2251   1.267       .  A
O2246      C2250   1.292       .  A
Zr2247     O2255   2.345       .  S
O2248     Zr3066   2.336   1_545  S
O2249     Zr2275   2.383       .  S
O2249     Zr2276   2.327   1_545  S
H2254      O2255   0.964       .  S
O2257     Zr2275   2.391       .  S
O2258     Zr2274   2.464       .  S
O2258      C2281   1.299       .  A
O2259      C2282   1.340       .  A
O2260     Zr2672   2.434   1_556  S
O2260      C2283   1.290       .  A
O2261     Zr2673   2.447   1_556  S
O2261      C2284   1.293       .  A
O2262     Zr2277   2.446   1_545  S
O2262      C2285   1.293       .  A
O2263     Zr2276   2.448   1_545  S
O2263      C2286   1.292       .  A
O2264      C2287   1.313       .  A
O2265     Zr2278   2.570       .  S
O2265      C2288   1.316       .  A
O2266     Zr3068   2.386       .  S
O2266      C2287   1.281       .  A
O2267     Zr3069   2.379       .  S
O2267      C2288   1.279       .  A
O2268      C2283   1.307       .  A
O2269     Zr2275   2.505       .  S
O2269      C2286   1.305       .  A
O2270      C2285   1.303       .  A
O2271     Zr2274   2.539       .  S
O2271      C2284   1.311       .  A
O2272      C2281   1.292       .  A
O2273     Zr2278   2.303       .  S
O2273      C2282   1.269       .  A
Zr2274     O3040   2.341       .  S
Zr2274     O2292   2.384       .  S
Zr2275     O3082   2.321   1_545  S
Zr2276     O2656   2.434       .  S
Zr2276     O3058   2.388       .  S
Zr2276     O2676   2.330       .  S
Zr2276     O3082   2.338       .  S
Zr2277     O2657   2.447       .  S
Zr2277     O3059   2.371       .  S
Zr2277     O3071   2.339       .  S
Zr2277     O2688   2.335       .  S
Zr2278     O2279   2.341       .  S
O2279     Zr3069   2.338       .  S
O2280     Zr2672   2.330   1_556  S
C2281      C2320   1.467       .  S
C2282      C2311   1.517       .  S
C2284      C2302   1.515       .  S
C2288      C2293   1.516       .  S
H2289      O2290   0.963       .  S
O2290     Zr3067   2.333       .  S
O2290     Zr3068   2.341       .  S
H2291      O2292   0.963       .  S
O2292     Zr2673   2.335   1_556  S
C2293      C2294   1.444       .  A
C2293      C2298   1.416       .  A
C2294      C2295   1.417       .  A
C2294      H2299   1.083       .  S
C2295      C2330   1.459       .  S
C2295      C2296   1.370       .  A
C2296      C2297   1.381       .  A
C2296      H2300   1.090       .  S
C2297      C2368   1.424       .  S
C2297      C2298   1.412       .  A
C2298      H2301   1.083       .  S
C2302      C2303   1.419       .  A
C2302      C2307   1.432       .  A
C2303      C2304   1.410       .  A
C2303      H2308   1.084       .  S
C2304      C2336   1.435       .  S
C2304      C2305   1.381       .  A
C2305      C2306   1.381       .  A
C2305      H2309   1.089       .  S
C2306      C2362   1.460       .  S
C2306      C2307   1.428       .  A
C2307      H2310   1.078       .  S
C2311      C2312   1.437       .  A
C2311      C2316   1.439       .  A
C2312      C2313   1.426       .  A
C2312      H2317   1.083   1_655  S
C2313      C2348   1.459       .  S
C2313      C2314   1.379       .  A
C2314      C2315   1.378       .  A
C2314      H2318   1.089       .  S
C2315      C2365   1.463       .  S
C2315      C2316   1.426       .  A
C2316      H2319   1.082       .  S
C2320      C2321   1.407       .  A
C2320      C2325   1.406       .  A
C2321      C2322   1.402       .  A
C2321      H2326   1.080       .  S
C2322      C2364   1.425       .  S
C2322      C2323   1.384       .  A
C2323      C2324   1.383       .  A
C2323      H2327   1.088       .  S
C2324      C2349   1.425       .  S
C2324      C2325   1.400       .  A
C2325      H2328   1.079       .  S
C2329      C2330   1.222       .  T
C2331      C2332   1.203       .  T
C2333      C2334   1.221       .  T
C2335      C2336   1.206       .  T
C2337      C2338   1.201       .  T
C2339      C2340   1.212       .  T
C2341      C2342   1.203       .  T
C2343      C2344   1.213       .  T
C2345      C2346   1.212       .  T
C2347      C2348   1.222       .  T
C2349      C2350   1.200       .  T
C2351      C2352   1.219       .  T
C2353      C2354   1.212       .  T
C2355      C2356   1.204       .  T
C2357      C2358   1.226       .  T
C2359      C2360   1.199       .  T
C2361      C2362   1.222       .  T
C2363      C2364   1.199       .  T
C2365      C2366   1.224       .  T
C2367      C2368   1.204       .  T
C2369      C2370   1.196       .  T
C2371      C2372   1.220       .  T
C2373      C2374   1.209       .  T
C2375      C2376   1.221       .  T
O2377     Zr2389   2.452       .  S
O2377      C2379   1.286       .  A
O2378     Zr2415   2.416       .  S
O2378      C2379   1.281       .  A
C2379      C2770   1.439       .  S
O2380     Zr2392   2.551       .  S
O2380      C2382   1.307       .  A
O2381     Zr2416   2.376       .  S
O2381      C2382   1.275       .  A
C2382      C2757   1.457       .  S
O2383     Zr2392   2.527       .  S
O2383      C2385   1.304       .  A
O2384     Zr2415   2.380       .  S
O2384      C2385   1.276       .  A
C2385      C2771   1.457       .  S
O2386     Zr2389   2.465       .  S
O2386      C2388   1.289       .  A
O2387     Zr2416   2.394       .  S
O2387      C2388   1.278       .  A
C2388      C2759   1.424       .  S
Zr2389     O2390   2.438       .  S
Zr2389     O2391   2.435       .  S
Zr2389     O2395   2.270       .  S
Zr2389     O2396   2.363       .  S
Zr2389     O2419   2.387       .  S
Zr2389     O2421   2.390       .  S
O2390      H2433   0.990       .  S
O2391      H2432   0.990       .  S
O2391      H2436   0.990       .  S
Zr2392     O2393   2.436       .  S
Zr2392     O2394   2.435       .  S
Zr2392     O2395   2.280       .  S
Zr2392     O2396   2.362       .  S
Zr2392     O2420   2.401       .  S
Zr2392     O2422   2.399       .  S
O2393      H2434   0.990       .  S
O2393      H2437   0.990       .  S
O2394      H2427   0.990       .  S
O2395     Zr2415   2.248       .  S
O2396     Zr2416   2.388       .  S
O2396      H2423   0.961       .  S
O2397     Zr2409   2.559       .  S
O2397      C2399   1.308       .  A
O2398     Zr2416   2.375       .  S
O2398      C2399   1.275       .  A
C2399      C2762   1.461       .  S
O2400     Zr2412   2.434       .  S
O2400      C2402   1.283       .  A
O2401     Zr2415   2.396       .  S
O2401      C2402   1.278       .  A
C2402      C2766   1.421       .  S
O2403     Zr2412   2.452       .  S
O2403      C2405   1.286       .  A
O2404     Zr2416   2.411       .  S
O2404      C2405   1.279       .  A
C2405      C2763   1.429       .  S
O2406     Zr2409   2.506       .  S
O2406      C2408   1.296       .  A
O2407     Zr2415   2.392       .  S
O2407      C2408   1.277       .  A
C2408      C2768   1.455       .  S
Zr2409     O2410   2.438       .  S
Zr2409     O2411   2.434       .  S
Zr2409     O2418   2.296       .  S
Zr2409     O2417   2.335       .  S
Zr2409     O2421   2.403       .  S
Zr2409     O2419   2.395       .  S
O2410      H2430   0.990       .  S
O2410      H2435   0.991       .  S
O2411      H2431   0.990       .  S
Zr2412     O2413   2.439       .  S
Zr2412     O2414   2.435       .  S
Zr2412     O2418   2.286       .  S
Zr2412     O2417   2.373       .  S
Zr2412     O2422   2.382       .  S
Zr2412     O2420   2.383       .  S
O2413      H2429   0.990       .  S
O2414      H2428   0.990       .  S
O2414      H2438   0.990       .  S
Zr2415     O2418   2.255       .  S
Zr2415     O2420   2.394       .  S
Zr2415     O2421   2.391       .  S
Zr2416     O2417   2.383       .  S
Zr2416     O2419   2.390       .  S
Zr2416     O2422   2.390       .  S
O2417      H2425   0.959       .  S
O2420      H2424   0.969       .  S
O2421      H2426   0.968       .  S
O2439     Zr2451   2.538       .  S
O2439      C2441   1.305       .  A
O2440      C2441   1.274       .  A
C2441      C2753   1.465       .  S
O2442     Zr2454   2.466       .  S
O2442      C2444   1.289       .  A
O2443     Zr2478   2.396   1_655  S
O2443      C2444   1.278       .  A
C2444      C2746   1.425       .  S
O2445     Zr2454   2.424       .  S
O2445      C2447   1.280       .  A
O2446     Zr2477   2.416   1_655  S
O2446      C2447   1.282       .  A
C2447      C2756   1.423       .  S
O2448     Zr2451   2.524       .  S
O2448      C2450   1.301       .  A
O2449      C2450   1.280       .  A
C2450      C2747   1.453       .  S
Zr2451     O2452   2.435       .  S
Zr2451     O2453   2.435       .  S
Zr2451     O2481   2.410       .  S
Zr2451     O2483   2.396       .  S
O2452      H2495   0.990       .  S
O2453      H2494   0.990       .  S
O2453      H2498   0.990       .  S
Zr2454     O2455   2.441       .  S
Zr2454     O2456   2.437       .  S
Zr2454     O2457   2.281       .  S
Zr2454     O2458   2.356   1_655  S
Zr2454     O2482   2.386       .  S
Zr2454     O2484   2.378       .  S
O2455      H2496   0.990       .  S
O2455      H2499   0.991       .  S
O2456      H2489   0.991       .  S
O2457     Zr2477   2.244   1_655  S
O2458     Zr2478   2.387       .  S
O2458      H2485   0.961   1_455  S
O2459     Zr2471   2.480       .  S
O2459      C2461   1.293       .  A
O2460      C2461   1.283       .  A
C2461      C2741   1.442       .  S
O2462     Zr2474   2.502       .  S
O2462      C2464   1.297       .  A
O2463     Zr2477   2.373   1_655  S
O2463      C2464   1.274       .  A
C2464      C2749   1.442       .  S
O2465     Zr2474   2.546       .  S
O2465      C2467   1.306       .  A
O2466     Zr2478   2.378   1_655  S
O2466      C2467   1.276       .  A
C2467      C2743   1.457       .  S
O2468     Zr2471   2.455       .  S
O2468      C2470   1.287       .  A
O2469      C2470   1.279       .  A
C2470      C2752   1.433       .  S
Zr2471     O2472   2.441       .  S
Zr2471     O2473   2.434       .  S
Zr2471     O2483   2.391       .  S
Zr2471     O2481   2.391       .  S
O2472      H2492   0.990       .  S
O2472      H2497   0.991       .  S
O2473      H2493   0.990       .  S
Zr2474     O2475   2.436       .  S
Zr2474     O2476   2.435       .  S
Zr2474     O2480   2.290   1_655  S
Zr2474     O2479   2.337   1_655  S
Zr2474     O2484   2.395       .  S
Zr2474     O2482   2.394       .  S
O2475      H2491   0.990       .  S
O2476      H2490   0.990       .  S
O2476      H2500   0.991       .  S
Zr2477     O2480   2.255       .  S
Zr2477     O2482   2.393   1_455  S
Zr2478     O2479   2.384       .  S
Zr2478     O2484   2.396   1_455  S
O2479      H2487   0.958       .  S
O2482      H2486   0.968       .  S
O2483      H2488   0.970       .  S
O2501     Zr2513   2.476       .  S
O2501      C2503   1.293       .  A
O2502     Zr2539   2.380   1_565  S
O2502      C2503   1.275       .  A
C2503      C2737   1.430       .  S
O2504     Zr2516   2.489       .  S
O2504      C2506   1.293       .  A
O2505      C2506   1.290       .  A
C2506      C2729   1.460       .  S
O2507     Zr2516   2.469       .  S
O2507      C2509   1.290       .  A
O2508      C2509   1.284       .  A
C2509      C2740   1.447       .  S
O2510     Zr2513   2.483       .  S
O2510      C2512   1.293       .  A
O2511     Zr2540   2.388       .  S
O2511      C2512   1.277       .  A
C2512      C2731   1.432       .  S
Zr2513     O2514   2.437       .  S
Zr2513     O2515   2.434       .  S
Zr2513     O2519   2.277       .  S
Zr2513     O2520   2.377       .  S
Zr2513     O2543   2.390       .  S
Zr2513     O2545   2.384       .  S
O2514      H2557   0.990       .  S
O2515      H2556   0.991       .  S
O2515      H2560   0.990       .  S
Zr2516     O2517   2.440       .  S
Zr2516     O2518   2.434       .  S
Zr2516     O2544   2.382       .  S
Zr2516     O2546   2.384       .  S
O2517      H2558   0.990       .  S
O2517      H2561   0.991       .  S
O2518      H2551   0.990       .  S
O2519     Zr2539   2.255   1_565  S
O2520     Zr2540   2.394       .  S
O2520      H2547   0.962       .  S
O2521     Zr2533   2.496       .  S
O2521      C2523   1.295       .  A
O2522     Zr2540   2.448       .  S
O2522      C2523   1.289       .  A
C2523      C2725   1.462       .  S
O2524     Zr2536   2.477       .  S
O2524      C2526   1.292       .  A
O2525      C2526   1.271       .  A
C2526      C2733   1.426       .  S
O2527     Zr2536   2.478       .  S
O2527      C2529   1.292       .  A
O2528      C2529   1.277       .  A
C2529      C2728   1.427       .  S
O2530     Zr2533   2.468       .  S
O2530      C2532   1.290       .  A
O2531     Zr2539   2.418   1_565  S
O2531      C2532   1.283       .  A
C2532      C2735   1.446       .  S
Zr2533     O2534   2.438       .  S
Zr2533     O2535   2.433       .  S
Zr2533     O2541   2.363   1_565  S
Zr2533     O2542   2.372   1_565  S
Zr2533     O2545   2.394       .  S
Zr2533     O2543   2.391       .  S
O2534      H2554   0.990       .  S
O2534      H2559   0.990       .  S
O2535      H2555   0.990       .  S
Zr2536     O2537   2.435       .  S
Zr2536     O2538   2.433       .  S
Zr2536     O2546   2.397       .  S
Zr2536     O2544   2.391       .  S
O2537      H2553   0.991       .  S
O2538      H2552   0.991       .  S
O2538      H2562   0.990       .  S
Zr2539     O2542   2.370       .  S
Zr2539     O2545   2.394   1_545  S
Zr2540     O2541   2.383   1_565  S
Zr2540     O2543   2.390       .  S
O2541      H2549   0.958       .  S
O2544      H2548   0.970       .  S
O2545      H2550   0.964       .  S
C2563      C2564   1.437       .  A
C2563      C2568   1.444       .  A
C2563      C2647   1.522       .  S
C2564      C2565   1.426       .  A
C2564      H2569   1.083       .  S
C2565      C2772   1.457       .  S
C2565      C2566   1.378       .  A
C2566      C2567   1.377       .  A
C2566      H2570   1.089       .  S
C2567      C2754   1.466       .  S
C2567      C2568   1.430       .  A
C2568      H2571   1.082       .  S
C2572      C2573   1.410       .  A
C2572      C2577   1.401       .  A
C2572      C2646   1.469       .  S
C2573      C2574   1.406       .  A
C2573      H2578   1.077       .  S
C2574      C2751   1.434       .  S
C2574      C2575   1.387       .  A
C2575      C2576   1.387       .  A
C2575      H2579   1.087       .  S
C2576      C2765   1.422       .  S
C2576      C2577   1.395       .  A
C2577      H2580   1.078       .  S
C2581      C2582   1.436       .  A
C2581      C2586   1.424       .  A
C2581      C2683   1.521       .  S
C2582      C2583   1.402       .  A
C2582      H2587   1.083       .  S
C2583      C2736   1.447       .  S
C2583      C2584   1.375       .  A
C2584      C2585   1.385       .  A
C2584      H2588   1.089       .  S
C2585      C2742   1.441       .  S
C2585      C2586   1.424       .  A
C2586      H2589   1.083       .  S
C2590      C2591   1.420       .  A
C2590      C2595   1.414       .  A
C2590      C2681   1.493       .  S
C2591      C2592   1.416       .  A
C2591      H2596   1.077       .  S
C2592      C2750   1.444       .  S
C2592      C2593   1.383       .  A
C2593      C2594   1.380       .  A
C2593      H2597   1.088       .  S
C2594      C2727   1.431       .  S
C2594      C2595   1.406       .  A
C2595      H2598   1.084       .  S
C2599      C2600   1.409       .  A
C2599      C2604   1.439       .  A
C2599      C2649   1.505       .  S
C2600      C2601   1.406       .  A
C2600      H2605   1.083       .  S
C2601      C2755   1.420       .  S
C2601      C2602   1.384       .  A
C2602      C2603   1.376       .  A
C2602      H2606   1.089       .  S
C2603      C2730   1.458       .  S
C2603      C2604   1.417       .  A
C2604      H2607   1.083       .  S
C2608      C2609   1.421       .  A
C2608      C2613   1.434       .  A
C2608      C2648   1.514       .  S
C2609      C2610   1.418       .  A
C2609      H2614   1.083       .  S
C2610      C2769   1.437       .  S
C2610      C2611   1.385       .  A
C2611      C2612   1.378       .  A
C2611      H2615   1.088       .  S
C2612      C2739   1.448       .  S
C2612      C2613   1.406       .  A
C2613      H2616   1.083       .  S
C2617      C2618   1.430       .  A
C2617      C2622   1.411       .  A
C2617      C2679   1.495       .  S
C2618      C2619   1.421       .  A
C2618      H2623   1.079       .  S
C2619      C2748   1.455       .  S
C2619      C2620   1.384       .  A
C2620      C2621   1.382       .  A
C2620      H2624   1.088       .  S
C2621      C2738   1.430       .  S
C2621      C2622   1.404       .  A
C2622      H2625   1.084       .  S
C2626      C2627   1.412       .  A
C2626      C2631   1.430       .  A
C2626      C2682   1.498       .  S
C2627      C2628   1.404       .  A
C2627      H2632   1.084       .  S
C2628      C2734   1.427       .  S
C2628      C2629   1.381       .  A
C2629      C2630   1.382       .  A
C2629      H2633   1.089       .  S
C2630      C2767   1.456       .  S
C2630      C2631   1.421       .  A
C2631      H2634   1.078       .  S
O2635     Zr2671   2.476       .  S
O2635      C2646   1.301       .  A
O2636      C2647   1.343       .  A
O2637     Zr2643   2.549       .  S
O2637      C2648   1.310       .  A
O2638     Zr2643   2.553       .  S
O2639     Zr3069   2.378       .  S
O2639      C2649   1.279       .  A
O2640     Zr3068   2.391       .  S
O2640      C2648   1.282       .  A
O2641     Zr2643   2.297       .  S
O2641      C2647   1.267       .  A
O2642     Zr3039   2.431   1_554  S
O2642      C2646   1.292       .  A
Zr2643     O3038   2.420       .  S
Zr2643     O3041   2.336       .  S
Zr2643     O3049   2.336       .  S
Zr2643     O2651   2.345       .  S
O2644     Zr3069   2.339       .  S
O2645     Zr3039   2.345   1_554  S
O2645     Zr2671   2.383       .  S
O2645     Zr2672   2.327       .  S
H2650      O2651   0.964       .  S
O2651     Zr3068   2.341       .  S
O2653     Zr3039   2.341   1_554  S
O2653     Zr2671   2.391       .  S
O2654     Zr2670   2.464       .  S
O2654      C2677   1.299       .  A
O2655      C2678   1.340       .  A
O2656      C2679   1.290       .  A
O2657      C2680   1.293       .  A
O2658     Zr2673   2.446       .  S
O2658      C2681   1.293       .  A
O2659     Zr2672   2.448       .  S
O2659      C2682   1.292       .  A
O2660      C2683   1.313       .  A
O2661     Zr2674   2.570       .  S
O2661      C2684   1.316       .  A
O2662      C2683   1.281       .  A
O2663      C2684   1.279       .  A
O2664      C2679   1.307       .  A
O2665     Zr2671   2.505       .  S
O2665      C2682   1.305       .  A
O2666      C2681   1.303       .  A
O2667     Zr2670   2.539       .  S
O2667      C2680   1.311       .  A
O2668     Zr3070   2.433       .  S
O2668      C2677   1.292       .  A
O2669     Zr2674   2.303       .  S
O2669      C2678   1.269       .  A
Zr2670     O2688   2.384       .  S
Zr2672     O3036   2.378   1_554  S
Zr2672     O3047   2.347   1_554  S
Zr2673     O3035   2.392   1_554  S
Zr2673     O3040   2.334   1_554  S
Zr2674     O3064   2.436   1_554  S
Zr2674     O2675   2.341       .  S
Zr2674     O3084   2.345   1_554  S
C2677      C2716   1.467       .  S
C2678      C2707   1.517       .  S
C2680      C2698   1.515       .  S
C2684      C2689   1.516       .  S
H2685      O2686   0.963       .  S
H2687      O2688   0.963       .  S
O2688     Zr3070   2.344       .  S
C2689      C2690   1.444       .  A
C2689      C2694   1.416       .  A
C2690      C2691   1.417       .  A
C2690      H2695   1.083       .  S
C2691      C2726   1.459       .  S
C2691      C2692   1.370       .  A
C2692      C2693   1.381       .  A
C2692      H2696   1.090       .  S
C2693      C2764   1.424       .  S
C2693      C2694   1.412       .  A
C2694      H2697   1.083       .  S
C2698      C2699   1.419       .  A
C2698      C2703   1.432       .  A
C2699      C2700   1.410       .  A
C2699      H2704   1.084       .  S
C2700      C2732   1.435       .  S
C2700      C2701   1.381       .  A
C2701      C2702   1.381       .  A
C2701      H2705   1.089       .  S
C2702      C2758   1.460       .  S
C2702      C2703   1.428       .  A
C2703      H2706   1.078       .  S
C2707      C2708   1.437       .  A
C2707      C2712   1.439       .  A
C2708      C2709   1.426       .  A
C2708      H2713   1.083   1_655  S
C2709      C2744   1.459       .  S
C2709      C2710   1.379       .  A
C2710      C2711   1.378       .  A
C2710      H2714   1.089       .  S
C2711      C2761   1.463       .  S
C2711      C2712   1.426       .  A
C2712      H2715   1.082       .  S
C2716      C2717   1.407       .  A
C2716      C2721   1.406       .  A
C2717      C2718   1.402       .  A
C2717      H2722   1.080       .  S
C2718      C2760   1.425       .  S
C2718      C2719   1.384       .  A
C2719      C2720   1.383       .  A
C2719      H2723   1.088       .  S
C2720      C2745   1.425       .  S
C2720      C2721   1.400       .  A
C2721      H2724   1.079       .  S
C2725      C2726   1.222       .  T
C2727      C2728   1.203       .  T
C2729      C2730   1.221       .  T
C2731      C2732   1.206       .  T
C2733      C2734   1.201       .  T
C2735      C2736   1.212       .  T
C2737      C2738   1.203       .  T
C2739      C2740   1.213       .  T
C2741      C2742   1.212       .  T
C2743      C2744   1.222       .  T
C2745      C2746   1.200       .  T
C2747      C2748   1.219       .  T
C2749      C2750   1.212       .  T
C2751      C2752   1.204       .  T
C2753      C2754   1.226       .  T
C2755      C2756   1.199       .  T
C2757      C2758   1.222       .  T
C2759      C2760   1.199       .  T
C2761      C2762   1.224       .  T
C2763      C2764   1.204       .  T
C2765      C2766   1.196       .  T
C2767      C2768   1.220       .  T
C2769      C2770   1.209       .  T
C2771      C2772   1.221       .  T
O2773     Zr2785   2.419       .  S
O2773      C2775   1.278       .  A
O2774     Zr2811   2.411       .  S
O2774      C2775   1.280       .  A
C2775      C3166   1.420       .  S
O2776     Zr2788   2.540       .  S
O2776      C2778   1.303       .  A
O2777     Zr2812   2.387       .  S
O2777      C2778   1.277       .  A
C2778      C3153   1.458       .  S
O2779     Zr2788   2.542       .  S
O2779      C2781   1.306       .  A
O2780     Zr2811   2.385       .  S
O2780      C2781   1.276       .  A
C2781      C3167   1.468       .  S
O2782     Zr2785   2.455       .  S
O2782      C2784   1.286       .  A
O2783     Zr2812   2.400       .  S
O2783      C2784   1.279       .  A
C2784      C3155   1.423       .  S
Zr2785     O2786   2.438       .  S
Zr2785     O2787   2.436       .  S
Zr2785     O2791   2.281       .  S
Zr2785     O2792   2.354       .  S
Zr2785     O2815   2.379       .  S
Zr2785     O2817   2.385       .  S
O2786      H2829   0.990       .  S
O2787      H2828   0.990       .  S
O2787      H2832   0.990       .  S
Zr2788     O2789   2.438       .  S
Zr2788     O2790   2.435       .  S
Zr2788     O2791   2.278       .  S
Zr2788     O2792   2.375       .  S
Zr2788     O2816   2.396       .  S
Zr2788     O2818   2.407       .  S
O2789      H2830   0.990       .  S
O2789      H2833   0.991       .  S
O2790      H2823   0.990       .  S
O2791     Zr2811   2.245       .  S
O2792     Zr2812   2.383       .  S
O2792      H2819   0.962       .  S
O2793     Zr2805   2.560       .  S
O2793      C2795   1.309       .  A
O2794     Zr2812   2.377       .  S
O2794      C2795   1.275       .  A
C2795      C3158   1.460       .  S
O2796     Zr2808   2.446       .  S
O2796      C2798   1.285       .  A
O2797     Zr2811   2.401       .  S
O2797      C2798   1.279       .  A
C2798      C3162   1.428       .  S
O2799     Zr2808   2.470       .  S
O2799      C2801   1.290       .  A
O2800     Zr2812   2.406       .  S
O2800      C2801   1.279       .  A
C2801      C3159   1.433       .  S
O2802     Zr2805   2.520       .  S
O2802      C2804   1.301       .  A
O2803     Zr2811   2.370       .  S
O2803      C2804   1.272       .  A
C2804      C3164   1.450       .  S
Zr2805     O2806   2.438       .  S
Zr2805     O2807   2.435       .  S
Zr2805     O2814   2.291       .  S
Zr2805     O2813   2.339       .  S
Zr2805     O2817   2.396       .  S
Zr2805     O2815   2.398       .  S
O2806      H2826   0.990       .  S
O2806      H2831   0.991       .  S
O2807      H2827   0.990       .  S
Zr2808     O2809   2.438       .  S
Zr2808     O2810   2.433       .  S
Zr2808     O2814   2.280       .  S
Zr2808     O2813   2.359       .  S
Zr2808     O2818   2.392       .  S
Zr2808     O2816   2.390       .  S
O2809      H2825   0.990       .  S
O2810      H2824   0.990       .  S
O2810      H2834   0.991       .  S
Zr2811     O2814   2.260       .  S
Zr2811     O2816   2.387       .  S
Zr2811     O2817   2.394       .  S
Zr2812     O2813   2.387       .  S
Zr2812     O2815   2.394       .  S
Zr2812     O2818   2.394       .  S
O2813      H2821   0.959       .  S
O2816      H2820   0.968       .  S
O2817      H2822   0.968       .  S
O2835     Zr2847   2.526       .  S
O2835      C2837   1.303       .  A
O2836      C2837   1.275       .  A
C2837      C3149   1.455       .  S
O2838     Zr2850   2.469       .  S
O2838      C2840   1.289       .  A
O2839     Zr2874   2.392   1_655  S
O2839      C2840   1.277       .  A
C2840      C3142   1.424       .  S
O2841     Zr2850   2.453       .  S
O2841      C2843   1.286       .  A
O2842     Zr2873   2.418       .  S
O2842      C2843   1.281       .  A
C2843      C3152   1.441       .  S
O2844     Zr2847   2.533       .  S
O2844      C2846   1.303       .  A
O2845      C2846   1.275       .  A
C2846      C3143   1.450       .  S
Zr2847     O2848   2.436       .  S
Zr2847     O2849   2.434       .  S
Zr2847     O2877   2.401       .  S
Zr2847     O2879   2.396       .  S
O2848      H2891   0.990       .  S
O2849      H2890   0.990       .  S
O2849      H2894   0.991       .  S
Zr2850     O2851   2.441       .  S
Zr2850     O2852   2.436       .  S
Zr2850     O2853   2.274       .  S
Zr2850     O2854   2.362       .  S
Zr2850     O2878   2.391       .  S
Zr2850     O2880   2.389       .  S
O2851      H2892   0.990       .  S
O2851      H2895   0.991       .  S
O2852      H2885   0.991       .  S
O2853     Zr2873   2.248       .  S
O2854     Zr2874   2.390   1_655  S
O2854      H2881   0.962       .  S
O2855     Zr2867   2.460       .  S
O2855      C2857   1.287       .  A
O2856      C2857   1.281       .  A
C2857      C3137   1.430       .  S
O2858     Zr2870   2.510       .  S
O2858      C2860   1.297       .  A
O2859     Zr2873   2.391       .  S
O2859      C2860   1.277       .  A
C2860      C3145   1.457       .  S
O2861     Zr2870   2.560       .  S
O2861      C2863   1.309       .  A
O2862     Zr2874   2.373   1_655  S
O2862      C2863   1.274       .  A
C2863      C3139   1.462       .  S
O2864     Zr2867   2.431       .  S
O2864      C2866   1.282       .  A
O2865      C2866   1.277       .  A
C2866      C3148   1.418       .  S
Zr2867     O2868   2.441       .  S
Zr2867     O2869   2.435       .  S
Zr2867     O2879   2.385       .  S
Zr2867     O2877   2.383       .  S
O2868      H2888   0.990       .  S
O2868      H2893   0.990       .  S
O2869      H2889   0.990       .  S
Zr2870     O2871   2.436       .  S
Zr2870     O2872   2.433       .  S
Zr2870     O2876   2.293       .  S
Zr2870     O2875   2.334   1_655  S
Zr2870     O2880   2.395       .  S
Zr2870     O2878   2.402       .  S
O2871      H2887   0.990       .  S
O2872      H2886   0.990       .  S
O2872      H2896   0.990       .  S
Zr2873     O2876   2.256       .  S
Zr2873     O2878   2.390       .  S
Zr2874     O2875   2.381       .  S
Zr2874     O2880   2.393   1_455  S
O2875      H2883   0.959       .  S
O2878      H2882   0.967       .  S
O2879      H2884   0.970       .  S
O2897     Zr2909   2.461       .  S
O2897      C2899   1.288       .  A
O2898     Zr2935   2.380   1_565  S
O2898      C2899   1.276       .  A
C2899      C3133   1.425       .  S
O2900     Zr2912   2.496       .  S
O2900      C2902   1.295       .  A
O2901      C2902   1.283       .  A
C2902      C3125   1.449       .  S
O2903     Zr2912   2.468       .  S
O2903      C2905   1.290       .  A
O2904      C2905   1.287       .  A
C2905      C3136   1.454       .  S
O2906     Zr2909   2.489       .  S
O2906      C2908   1.295       .  A
O2907     Zr2936   2.371   1_565  S
O2907      C2908   1.274       .  A
C2908      C3127   1.426       .  S
Zr2909     O2910   2.437       .  S
Zr2909     O2911   2.436       .  S
Zr2909     O2915   2.282       .  S
Zr2909     O2916   2.359       .  S
Zr2909     O2939   2.378       .  S
Zr2909     O2941   2.390       .  S
O2910      H2953   0.990       .  S
O2911      H2952   0.990       .  S
O2911      H2956   0.990       .  S
Zr2912     O2913   2.440       .  S
Zr2912     O2914   2.436       .  S
Zr2912     O2940   2.387       .  S
Zr2912     O2942   2.384       .  S
O2913      H2954   0.990       .  S
O2913      H2957   0.991       .  S
O2914      H2947   0.990       .  S
O2915     Zr2935   2.257   1_565  S
O2916     Zr2936   2.389   1_565  S
O2916      H2943   0.960       .  S
O2917     Zr2929   2.488       .  S
O2917      C2919   1.294       .  A
O2918     Zr2936   2.428   1_565  S
O2918      C2919   1.285       .  A
C2919      C3121   1.451       .  S
O2920     Zr2932   2.478       .  S
O2920      C2922   1.291       .  A
O2921      C2922   1.276       .  A
C2922      C3129   1.434       .  S
O2923     Zr2932   2.498       .  S
O2923      C2925   1.297       .  A
O2924      C2925   1.274       .  A
C2925      C3124   1.429       .  S
O2926     Zr2929   2.475       .  S
O2926      C2928   1.291       .  A
O2927     Zr2935   2.445   1_565  S
O2927      C2928   1.288       .  A
C2928      C3131   1.460       .  S
Zr2929     O2930   2.439       .  S
Zr2929     O2931   2.433       .  S
Zr2929     O2937   2.362   1_565  S
Zr2929     O2938   2.365   1_565  S
Zr2929     O2941   2.391       .  S
Zr2929     O2939   2.394       .  S
O2930      H2950   0.990       .  S
O2930      H2955   0.990       .  S
O2931      H2951   0.990       .  S
Zr2932     O2933   2.435       .  S
Zr2932     O2934   2.433       .  S
Zr2932     O2942   2.387       .  S
Zr2932     O2940   2.396       .  S
O2933      H2949   0.990       .  S
O2934      H2948   0.991       .  S
O2934      H2958   0.990       .  S
Zr2935     O2938   2.366       .  S
Zr2935     O2941   2.392   1_545  S
Zr2936     O2937   2.388       .  S
Zr2936     O2939   2.394   1_545  S
O2937      H2945   0.962       .  S
O2940      H2944   0.969       .  S
O2941      H2946   0.964       .  S
C2959      C2960   1.444       .  A
C2959      C2964   1.434       .  A
C2959      C3043   1.520       .  S
C2960      C2961   1.430       .  A
C2960      H2965   1.083       .  S
C2961      C3168   1.469       .  S
C2961      C2962   1.378       .  A
C2962      C2963   1.381       .  A
C2962      H2966   1.089       .  S
C2963      C3150   1.456       .  S
C2963      C2964   1.424       .  A
C2964      H2967   1.083       .  S
C2968      C2969   1.400       .  A
C2968      C2973   1.406       .  A
C2968      C3042   1.463       .  S
C2969      C2970   1.395       .  A
C2969      H2974   1.079       .  S
C2970      C3147   1.421       .  S
C2970      C2971   1.388       .  A
C2971      C2972   1.388       .  A
C2971      H2975   1.087       .  S
C2972      C3161   1.430       .  S
C2972      C2973   1.401       .  A
C2973      H2976   1.077       .  S
C2977      C2978   1.441       .  A
C2977      C2982   1.416       .  A
C2977      C3079   1.515       .  S
C2978      C2979   1.414       .  A
C2978      H2983   1.083       .  S
C2979      C3132   1.458       .  S
C2979      C2980   1.373       .  A
C2980      C2981   1.383       .  A
C2980      H2984   1.089       .  S
C2981      C3138   1.428       .  S
C2981      C2982   1.415       .  A
C2982      H2985   1.083       .  S
C2986      C2987   1.431       .  A
C2986      C2991   1.413       .  A
C2986      C3077   1.500       .  S
C2987      C2988   1.420       .  A
C2987      H2992   1.079       .  S
C2988      C3146   1.458       .  S
C2988      C2989   1.383       .  A
C2989      C2990   1.381       .  A
C2989      H2993   1.088       .  S
C2990      C3123   1.431       .  S
C2990      C2991   1.408       .  A
C2991      H2994   1.084       .  S
C2995      C2996   1.423       .  A
C2995      C3000   1.436       .  A
C2995      C3045   1.520       .  S
C2996      C2997   1.421       .  A
C2996      H3001   1.083       .  S
C2997      C3151   1.439       .  S
C2997      C2998   1.384       .  A
C2998      C2999   1.376       .  A
C2998      H3002   1.089       .  S
C2999      C3126   1.449       .  S
C2999      C3000   1.407       .  A
C3000      H3003   1.083       .  S
C3004      C3005   1.409       .  A
C3004      C3009   1.438       .  A
C3004      C3044   1.501       .  S
C3005      C3006   1.405       .  A
C3005      H3010   1.083       .  S
C3006      C3165   1.418       .  S
C3006      C3007   1.382       .  A
C3007      C3008   1.374       .  A
C3007      H3011   1.089       .  S
C3008      C3135   1.452       .  S
C3008      C3009   1.412       .  A
C3009      H3012   1.083       .  S
C3013      C3014   1.425       .  A
C3013      C3018   1.414       .  A
C3013      C3075   1.500       .  S
C3014      C3015   1.424       .  A
C3014      H3019   1.076       .  S
C3015      C3144   1.454       .  S
C3015      C3016   1.384       .  A
C3016      C3017   1.382       .  A
C3016      H3020   1.088       .  S
C3017      C3134   1.428       .  S
C3017      C3018   1.401       .  A
C3018      H3021   1.085       .  S
C3022      C3023   1.419       .  A
C3022      C3027   1.425       .  A
C3022      C3078   1.506       .  S
C3023      C3024   1.408       .  A
C3023      H3028   1.084       .  S
C3024      C3130   1.437       .  S
C3024      C3025   1.383       .  A
C3025      C3026   1.385       .  A
C3025      H3029   1.088       .  S
C3026      C3163   1.453       .  S
C3026      C3027   1.422       .  A
C3027      H3030   1.076       .  S
O3031     Zr3067   2.471       .  S
O3031      C3042   1.300       .  A
O3032      C3043   1.341       .  A
O3033     Zr3039   2.551       .  S
O3033      C3044   1.312       .  A
O3034     Zr3039   2.552       .  S
O3035      C3045   1.282       .  A
O3036      C3044   1.279       .  A
O3037     Zr3039   2.309       .  S
O3037      C3043   1.269       .  A
O3038      C3042   1.289       .  A
Zr3039     O3047   2.348       .  S
O3041     Zr3067   2.377       .  S
O3041     Zr3068   2.320       .  S
H3046      O3047   0.964       .  S
O3049     Zr3067   2.391       .  S
O3050     Zr3066   2.467       .  S
O3050      C3073   1.300       .  A
O3051      C3074   1.342       .  A
O3052      C3075   1.288       .  A
O3053      C3076   1.296       .  A
O3054     Zr3069   2.462       .  S
O3054      C3077   1.296       .  A
O3055     Zr3068   2.427       .  S
O3055      C3078   1.289       .  A
O3056      C3079   1.317       .  A
O3057     Zr3070   2.557       .  S
O3057      C3080   1.313       .  A
O3058      C3079   1.281       .  A
O3059      C3080   1.279       .  A
O3060      C3075   1.308       .  A
O3061     Zr3067   2.528       .  S
O3061      C3078   1.309       .  A
O3062      C3077   1.306       .  A
O3063     Zr3066   2.514       .  S
O3063      C3076   1.307       .  A
O3064      C3073   1.293       .  A
O3065     Zr3070   2.293       .  S
O3065      C3074   1.267       .  A
Zr3066     O3084   2.397       .  S
Zr3070     O3071   2.347       .  S
C3073      C3112   1.466       .  S
C3074      C3103   1.519       .  S
C3076      C3094   1.503       .  S
C3080      C3085   1.514       .  S
H3081      O3082   0.963       .  S
H3083      O3084   0.962       .  S
C3085      C3086   1.438       .  A
C3085      C3090   1.418       .  A
C3086      C3087   1.407       .  A
C3086      H3091   1.083       .  S
C3087      C3122   1.450       .  S
C3087      C3088   1.374       .  A
C3088      C3089   1.384       .  A
C3088      H3092   1.089       .  S
C3089      C3160   1.431       .  S
C3089      C3090   1.416       .  A
C3090      H3093   1.083       .  S
C3094      C3095   1.412       .  A
C3094      C3099   1.434       .  A
C3095      C3096   1.405       .  A
C3095      H3100   1.084       .  S
C3096      C3128   1.427       .  S
C3096      C3097   1.379       .  A
C3097      C3098   1.380       .  A
C3097      H3101   1.089       .  S
C3098      C3154   1.459       .  S
C3098      C3099   1.425       .  A
C3099      H3102   1.080       .  S
C3103      C3104   1.442       .  A
C3103      C3108   1.439       .  A
C3104      C3105   1.428       .  A
C3104      H3109   1.083       .  S
C3105      C3140   1.464       .  S
C3105      C3106   1.378       .  A
C3106      C3107   1.378       .  A
C3106      H3110   1.089       .  S
C3107      C3157   1.461       .  S
C3107      C3108   1.428       .  A
C3108      H3111   1.083       .  S
C3112      C3113   1.406       .  A
C3112      C3117   1.405       .  A
C3113      C3114   1.400       .  A
C3113      H3118   1.081       .  S
C3114      C3156   1.423       .  S
C3114      C3115   1.385       .  A
C3115      C3116   1.383       .  A
C3115      H3119   1.088       .  S
C3116      C3141   1.425       .  S
C3116      C3117   1.400       .  A
C3117      H3120   1.077       .  S
C3121      C3122   1.215       .  T
C3123      C3124   1.204       .  T
C3125      C3126   1.214       .  T
C3127      C3128   1.202       .  T
C3129      C3130   1.206       .  T
C3131      C3132   1.220       .  T
C3133      C3134   1.200       .  T
C3135      C3136   1.217       .  T
C3137      C3138   1.205       .  T
C3139      C3140   1.225       .  T
C3141      C3142   1.200       .  T
C3143      C3144   1.217       .  T
C3145      C3146   1.221       .  T
C3147      C3148   1.195       .  T
C3149      C3150   1.220       .  T
C3151      C3152   1.210       .  T
C3153      C3154   1.222       .  T
C3155      C3156   1.198       .  T
C3157      C3158   1.224       .  T
C3159      C3160   1.206       .  T
C3161      C3162   1.201       .  T
C3163      C3164   1.217       .  T
C3165      C3166   1.198       .  T
C3167      C3168   1.228       .  T
